xflr5 v6.61

Plane Name
T1-10.0 m/s-Panel-Inviscid
QInf  =   10.000000 m/s
Alpha =   10.000000
Beta  =    0.000°
Phi   =    0.000°
Ctrl  =    0.000
CL    =    0.943794
Cy    =    0.000000
Cd    =    0.028860     ICd   =    0.028860     PCd   =    0.000000
Cl   = 1.04546e-15
Cm   =    -1.15904
ICn   =   -0.000000     PCn   =   -0.000000 
XCP   =    4.278589     YCP   =   -0.000000     ZCP   =    0.447246  
XNP   =    0.000000
Bending = 16989.830260

Main Wing
  y-span        Chord      Ai         Cl        PCd          ICd        CmGeom    CmAirf@chord/4    XTrtop    XTrBot      XCP       BM
  -15.2988     1.5557    -6.003    0.303565    0.000000    0.031919   -1.818183    0.029897     0.0000    0.0000    0.1601    0.0000
  -15.1943     1.5786    -4.576    0.503459    0.000000    0.040280   -2.699591    0.022236     0.0000    0.0000    0.2020    0.1619
  -14.9860     1.6241    -3.972    0.686442    0.000000    0.047644   -3.402112    0.030986     0.0000    0.0000    0.1989    2.1102
  -14.6754     1.6920    -3.403    0.829041    0.000000    0.049278   -3.892255    0.022726     0.0000    0.0000    0.2170   10.6583
  -14.2644     1.7818    -2.847    0.928530    0.000000    0.046143   -4.068906    0.012092     0.0000    0.0000    0.2316   35.0213
  -13.7561     1.8930    -2.363    0.990879    0.000000    0.040851   -3.982320    0.003868     0.0000    0.0000    0.2408   89.4325
  -13.1538     2.0246    -1.997    1.025458    0.000000    0.035715   -3.721762   -0.001408     0.0000    0.0000    0.2461   193.2921
  -12.4616     2.1759    -1.753    1.040850    0.000000    0.031802   -3.366237   -0.004531     0.0000    0.0000    0.2491   371.0430
  -11.6843     2.3459    -1.609    1.043303    0.000000    0.029250   -2.971587   -0.006307     0.0000    0.0000    0.2508   651.8626
  -10.8272     2.5332    -1.540    1.036889    0.000000    0.027824   -2.572916   -0.007286     0.0000    0.0000    0.2518   1069.1468
   -9.8961     2.7367    -1.526    1.024114    0.000000    0.027217   -2.190720   -0.007793     0.0000    0.0000    0.2524   1659.7231
   -8.8974     2.9551    -1.550    1.006444    0.000000    0.027157   -1.835979   -0.008016     0.0000    0.0000    0.2527   2462.7397
   -7.8379     3.1866    -1.601    0.984671    0.000000    0.027425   -1.513731   -0.008081     0.0000    0.0000    0.2530   3518.2046
   -6.7249     3.4299    -1.668    0.959111    0.000000    0.027825   -1.225502   -0.008086     0.0000    0.0000    0.2532   4865.1804
   -5.5660     3.6833    -1.743    0.929744    0.000000    0.028167   -0.970907   -0.008161     0.0000    0.0000    0.2536   6539.6657
   -4.3690     3.9449    -1.814    0.896254    0.000000    0.028217   -0.748643   -0.008561     0.0000    0.0000    0.2544   8572.2340
   -3.1422     4.2131    -1.859    0.858072    0.000000    0.027621   -0.557374   -0.009895     0.0000    0.0000    0.2565   10985.5157
   -1.8940     4.4860    -1.838    0.814362    0.000000    0.025744   -0.396796   -0.013801     0.0000    0.0000    0.2621   13791.6477
   -0.6328     4.7617    -1.665    0.762011    0.000000    0.020961   -0.269663   -0.025829     0.0000    0.0000    0.2797   16989.8303
    0.6328     4.7617    -1.665    0.762011    0.000000    0.020961   -0.269663   -0.025829     0.0000    0.0000    0.2797   16989.8303
    1.8940     4.4860    -1.838    0.814362    0.000000    0.025744   -0.396796   -0.013801     0.0000    0.0000    0.2621   13791.6477
    3.1422     4.2131    -1.859    0.858072    0.000000    0.027621   -0.557374   -0.009895     0.0000    0.0000    0.2565   10985.5157
    4.3690     3.9449    -1.814    0.896254    0.000000    0.028217   -0.748643   -0.008561     0.0000    0.0000    0.2544   8572.2340
    5.5660     3.6833    -1.743    0.929744    0.000000    0.028167   -0.970907   -0.008161     0.0000    0.0000    0.2536   6539.6657
    6.7249     3.4299    -1.668    0.959111    0.000000    0.027825   -1.225502   -0.008086     0.0000    0.0000    0.2532   4865.1804
    7.8379     3.1866    -1.601    0.984671    0.000000    0.027425   -1.513731   -0.008081     0.0000    0.0000    0.2530   3518.2046
    8.8974     2.9551    -1.550    1.006444    0.000000    0.027157   -1.835979   -0.008016     0.0000    0.0000    0.2527   2462.7397
    9.8961     2.7367    -1.526    1.024114    0.000000    0.027217   -2.190720   -0.007793     0.0000    0.0000    0.2524   1659.7231
   10.8272     2.5332    -1.540    1.036889    0.000000    0.027824   -2.572916   -0.007286     0.0000    0.0000    0.2518   1069.1468
   11.6843     2.3459    -1.609    1.043303    0.000000    0.029250   -2.971587   -0.006307     0.0000    0.0000    0.2508   651.8626
   12.4616     2.1759    -1.753    1.040850    0.000000    0.031802   -3.366237   -0.004531     0.0000    0.0000    0.2491   371.0430
   13.1538     2.0246    -1.997    1.025458    0.000000    0.035715   -3.721762   -0.001408     0.0000    0.0000    0.2461   193.2921
   13.7561     1.8930    -2.363    0.990879    0.000000    0.040851   -3.982320    0.003868     0.0000    0.0000    0.2408   89.4325
   14.2644     1.7818    -2.847    0.928530    0.000000    0.046143   -4.068906    0.012092     0.0000    0.0000    0.2316   35.0213
   14.6754     1.6920    -3.403    0.829041    0.000000    0.049278   -3.892255    0.022726     0.0000    0.0000    0.2170   10.6583
   14.9860     1.6241    -3.972    0.686442    0.000000    0.047644   -3.402112    0.030986     0.0000    0.0000    0.1989    2.1102
   15.1943     1.5786    -4.576    0.503459    0.000000    0.040280   -2.699591    0.022236     0.0000    0.0000    0.2020    0.1619
   15.2988     1.5557    -6.003    0.303565    0.000000    0.031919   -1.818183    0.029897     0.0000    0.0000    0.1601    0.0000


Main Wing Cp Coefficients
 Panel     CtrlPt.x        CtrlPt.y        CtrlPt.z       Nx      Ny       Nz        Area       Cp
Main WingCp Coefficients
Strip 1
  13       9.172e+00      -1.528e+01       6.917e-01           0.199           0.011          -0.980       1.209e-03         -0.7174
  14       9.128e+00      -1.528e+01       6.857e-01           0.111          -0.014          -0.994       3.504e-03         -0.6950
  15       9.041e+00      -1.528e+01       6.764e-01           0.103          -0.017          -0.995       5.609e-03         -0.6315
  16       8.918e+00      -1.528e+01       6.644e-01           0.092          -0.020          -0.996       7.383e-03         -0.5247
  17       8.765e+00      -1.529e+01       6.513e-01           0.079          -0.024          -0.997       8.724e-03         -0.4175
  18       8.591e+00      -1.529e+01       6.390e-01           0.063          -0.030          -0.998       9.555e-03         -0.3297
  19       8.406e+00      -1.529e+01       6.295e-01           0.041          -0.039          -0.998       9.830e-03         -0.2621
  20       8.221e+00      -1.529e+01       6.249e-01           0.009          -0.052          -0.999       9.537e-03         -0.2051
  21       8.047e+00      -1.529e+01       6.273e-01          -0.038          -0.071          -0.997       8.706e-03         -0.1423
  22       7.894e+00      -1.529e+01       6.369e-01          -0.092          -0.095          -0.991       7.392e-03         -0.0530
  23       7.770e+00      -1.529e+01       6.493e-01          -0.110          -0.104          -0.989       5.622e-03          0.0766
  24       7.684e+00      -1.528e+01       6.620e-01          -0.200          -0.146          -0.969       3.573e-03          0.3188
  25       7.639e+00      -1.528e+01       6.814e-01          -0.698          -0.376          -0.609       1.891e-03          0.4449
  26       7.639e+00      -1.528e+01       7.130e-01          -0.790          -0.372           0.487       2.516e-03         -1.2565
  27       7.684e+00      -1.528e+01       7.521e-01          -0.501          -0.215           0.838       4.204e-03         -1.5217
  28       7.770e+00      -1.528e+01       7.865e-01          -0.258          -0.092           0.962       5.824e-03         -1.2309
  29       7.894e+00      -1.528e+01       8.061e-01          -0.075          -0.005           0.997       7.369e-03         -0.8515
  30       8.047e+00      -1.528e+01       8.109e-01           0.006           0.032           0.999       8.683e-03         -0.5779
  31       8.221e+00      -1.528e+01       8.055e-01           0.053           0.051           0.997       9.534e-03         -0.4572
  32       8.406e+00      -1.528e+01       7.928e-01           0.084           0.064           0.994       9.843e-03         -0.4049
  33       8.591e+00      -1.528e+01       7.751e-01           0.106           0.072           0.992       9.581e-03         -0.3989
  34       8.765e+00      -1.528e+01       7.551e-01           0.123           0.078           0.989       8.757e-03         -0.4358
  35       8.918e+00      -1.528e+01       7.353e-01           0.135           0.082           0.987       7.418e-03         -0.5108
  36       9.041e+00      -1.528e+01       7.179e-01           0.146           0.085           0.986       5.640e-03         -0.6033
  37       9.128e+00      -1.528e+01       7.048e-01           0.154           0.088           0.984       3.526e-03         -0.6924
  38       9.172e+00      -1.528e+01       6.968e-01           0.240           0.111           0.964       1.222e-03         -0.6454
Strip 2
  39       9.143e+00      -1.518e+01       6.869e-01           0.199           0.011          -0.980       3.673e-03         -0.2638
  40       9.098e+00      -1.518e+01       6.808e-01           0.111          -0.014          -0.994       1.064e-02         -0.2657
  41       9.010e+00      -1.518e+01       6.714e-01           0.103          -0.017          -0.995       1.703e-02         -0.2639
  42       8.885e+00      -1.518e+01       6.592e-01           0.092          -0.020          -0.996       2.242e-02         -0.2441
  43       8.729e+00      -1.518e+01       6.460e-01           0.079          -0.024          -0.997       2.649e-02         -0.2146
  44       8.553e+00      -1.518e+01       6.335e-01           0.063          -0.030          -0.998       2.902e-02         -0.1847
  45       8.365e+00      -1.518e+01       6.238e-01           0.041          -0.039          -0.998       2.985e-02         -0.1544
  46       8.178e+00      -1.518e+01       6.192e-01           0.009          -0.052          -0.999       2.896e-02         -0.1167
  47       8.001e+00      -1.518e+01       6.216e-01          -0.038          -0.071          -0.997       2.644e-02         -0.0535
  48       7.846e+00      -1.518e+01       6.314e-01          -0.092          -0.095          -0.991       2.245e-02          0.0650
  49       7.720e+00      -1.518e+01       6.439e-01          -0.110          -0.104          -0.989       1.708e-02          0.2336
  50       7.633e+00      -1.518e+01       6.568e-01          -0.200          -0.146          -0.969       1.085e-02          0.5024
  51       7.587e+00      -1.518e+01       6.765e-01          -0.698          -0.376          -0.609       5.746e-03          0.3969
  52       7.587e+00      -1.518e+01       7.085e-01          -0.790          -0.372           0.487       7.640e-03         -1.7628
  53       7.633e+00      -1.518e+01       7.482e-01          -0.501          -0.215           0.838       1.276e-02         -1.9554
  54       7.720e+00      -1.517e+01       7.831e-01          -0.258          -0.092           0.962       1.768e-02         -1.5936
  55       7.846e+00      -1.517e+01       8.030e-01          -0.075          -0.005           0.997       2.238e-02         -1.0830
  56       8.001e+00      -1.517e+01       8.078e-01           0.006           0.032           0.999       2.637e-02         -0.6871
  57       8.178e+00      -1.517e+01       8.024e-01           0.053           0.051           0.997       2.896e-02         -0.4896
  58       8.365e+00      -1.517e+01       7.895e-01           0.084           0.064           0.994       2.990e-02         -0.3860
  59       8.553e+00      -1.518e+01       7.716e-01           0.106           0.072           0.992       2.910e-02         -0.3344
  60       8.729e+00      -1.518e+01       7.513e-01           0.123           0.078           0.989       2.660e-02         -0.3174
  61       8.885e+00      -1.518e+01       7.312e-01           0.135           0.082           0.987       2.253e-02         -0.3186
  62       9.010e+00      -1.518e+01       7.135e-01           0.146           0.085           0.986       1.713e-02         -0.3149
  63       9.098e+00      -1.518e+01       7.002e-01           0.154           0.088           0.984       1.071e-02         -0.2939
  64       9.143e+00      -1.518e+01       6.921e-01           0.240           0.111           0.964       3.711e-03         -0.1966
Strip 3
  65       9.084e+00      -1.497e+01       6.774e-01           0.199           0.011          -0.980       6.268e-03          0.0523
  66       9.038e+00      -1.497e+01       6.711e-01           0.111          -0.014          -0.994       1.817e-02          0.0326
  67       8.947e+00      -1.497e+01       6.615e-01           0.103          -0.017          -0.995       2.907e-02         -0.0051
  68       8.819e+00      -1.497e+01       6.489e-01           0.092          -0.020          -0.996       3.827e-02         -0.0352
  69       8.659e+00      -1.497e+01       6.353e-01           0.079          -0.024          -0.997       4.522e-02         -0.0492
  70       8.477e+00      -1.497e+01       6.224e-01           0.063          -0.030          -0.998       4.953e-02         -0.0497
  71       8.284e+00      -1.497e+01       6.125e-01           0.041          -0.039          -0.998       5.096e-02         -0.0364
  72       8.091e+00      -1.497e+01       6.077e-01           0.009          -0.052          -0.999       4.944e-02         -0.0004
  73       7.909e+00      -1.497e+01       6.102e-01          -0.038          -0.071          -0.997       4.513e-02          0.0811
  74       7.749e+00      -1.497e+01       6.202e-01          -0.092          -0.095          -0.991       3.832e-02          0.2354
  75       7.621e+00      -1.497e+01       6.331e-01          -0.110          -0.104          -0.989       2.915e-02          0.4280
  76       7.530e+00      -1.497e+01       6.464e-01          -0.199          -0.146          -0.969       1.853e-02          0.6787
  77       7.484e+00      -1.497e+01       6.667e-01          -0.698          -0.376          -0.610       9.811e-03          0.3198
  78       7.484e+00      -1.497e+01       6.996e-01          -0.790          -0.372           0.487       1.304e-02         -2.2576
  79       7.530e+00      -1.497e+01       7.404e-01          -0.502          -0.215           0.838       2.178e-02         -2.3465
  80       7.621e+00      -1.497e+01       7.764e-01          -0.258          -0.092           0.962       3.018e-02         -1.9225
  81       7.749e+00      -1.497e+01       7.969e-01          -0.075          -0.005           0.997       3.820e-02         -1.3241
  82       7.909e+00      -1.497e+01       8.018e-01           0.006           0.032           0.999       4.501e-02         -0.8314
  83       8.091e+00      -1.497e+01       7.963e-01           0.053           0.051           0.997       4.943e-02         -0.5501
  84       8.284e+00      -1.497e+01       7.830e-01           0.084           0.064           0.994       5.103e-02         -0.3755
  85       8.477e+00      -1.497e+01       7.645e-01           0.106           0.072           0.992       4.968e-02         -0.2573
  86       8.659e+00      -1.497e+01       7.436e-01           0.123           0.078           0.989       4.540e-02         -0.1695
  87       8.819e+00      -1.497e+01       7.229e-01           0.135           0.082           0.987       3.846e-02         -0.0934
  88       8.947e+00      -1.497e+01       7.047e-01           0.146           0.085           0.986       2.924e-02         -0.0153
  89       9.038e+00      -1.497e+01       6.911e-01           0.154           0.088           0.984       1.828e-02          0.0602
  90       9.084e+00      -1.497e+01       6.827e-01           0.240           0.111           0.964       6.334e-03          0.1666
Strip 4
  91       8.997e+00      -1.466e+01       6.632e-01           0.199           0.011          -0.980       9.079e-03          0.1234
  92       8.948e+00      -1.466e+01       6.567e-01           0.111          -0.014          -0.994       2.631e-02          0.1056
  93       8.854e+00      -1.466e+01       6.466e-01           0.103          -0.017          -0.995       4.211e-02          0.0701
  94       8.720e+00      -1.466e+01       6.335e-01           0.092          -0.020          -0.996       5.543e-02          0.0390
  95       8.553e+00      -1.466e+01       6.193e-01           0.079          -0.024          -0.997       6.550e-02          0.0232
  96       8.364e+00      -1.466e+01       6.059e-01           0.063          -0.030          -0.998       7.174e-02          0.0224
  97       8.163e+00      -1.466e+01       5.956e-01           0.041          -0.039          -0.998       7.381e-02          0.0395
  98       7.962e+00      -1.466e+01       5.906e-01           0.009          -0.052          -0.999       7.162e-02          0.0846
  99       7.773e+00      -1.466e+01       5.932e-01          -0.038          -0.071          -0.997       6.538e-02          0.1785
 100       7.606e+00      -1.466e+01       6.036e-01          -0.092          -0.095          -0.991       5.552e-02          0.3380
 101       7.472e+00      -1.466e+01       6.171e-01          -0.110          -0.104          -0.989       4.223e-02          0.5234
 102       7.378e+00      -1.466e+01       6.309e-01          -0.199          -0.146          -0.969       2.684e-02          0.7423
 103       7.329e+00      -1.466e+01       6.520e-01          -0.697          -0.376          -0.610       1.422e-02          0.1801
 104       7.329e+00      -1.466e+01       6.864e-01          -0.791          -0.373           0.486       1.888e-02         -2.6729
 105       7.378e+00      -1.466e+01       7.289e-01          -0.502          -0.215           0.838       3.153e-02         -2.6370
 106       7.472e+00      -1.466e+01       7.664e-01          -0.258          -0.092           0.962       4.371e-02         -2.1459
 107       7.606e+00      -1.466e+01       7.877e-01          -0.075          -0.005           0.997       5.533e-02         -1.4971
 108       7.773e+00      -1.466e+01       7.928e-01           0.006           0.032           0.999       6.520e-02         -0.9619
 109       7.962e+00      -1.466e+01       7.871e-01           0.053           0.051           0.997       7.160e-02         -0.6424
 110       8.163e+00      -1.466e+01       7.732e-01           0.084           0.064           0.994       7.393e-02         -0.4294
 111       8.364e+00      -1.466e+01       7.540e-01           0.106           0.072           0.992       7.196e-02         -0.2761
 112       8.553e+00      -1.466e+01       7.322e-01           0.123           0.078           0.989       6.578e-02         -0.1584
 113       8.720e+00      -1.466e+01       7.107e-01           0.135           0.082           0.987       5.572e-02         -0.0583
 114       8.854e+00      -1.466e+01       6.917e-01           0.146           0.085           0.986       4.236e-02          0.0379
 115       8.948e+00      -1.466e+01       6.775e-01           0.154           0.088           0.984       2.648e-02          0.1259
 116       8.997e+00      -1.466e+01       6.688e-01           0.240           0.111           0.964       9.177e-03          0.2347
Strip 5
 117       8.881e+00      -1.425e+01       6.444e-01           0.199           0.011          -0.980       1.218e-02          0.1477
 118       8.830e+00      -1.425e+01       6.375e-01           0.111          -0.014          -0.994       3.530e-02          0.1329
 119       8.731e+00      -1.425e+01       6.269e-01           0.103          -0.017          -0.995       5.649e-02          0.1023
 120       8.590e+00      -1.425e+01       6.132e-01           0.092          -0.020          -0.996       7.436e-02          0.0752
 121       8.414e+00      -1.425e+01       5.982e-01           0.079          -0.024          -0.997       8.787e-02          0.0633
 122       8.215e+00      -1.425e+01       5.841e-01           0.063          -0.030          -0.998       9.625e-02          0.0671
 123       8.003e+00      -1.425e+01       5.732e-01           0.041          -0.039          -0.998       9.902e-02          0.0896
 124       7.791e+00      -1.425e+01       5.679e-01           0.009          -0.052          -0.999       9.608e-02          0.1399
 125       7.592e+00      -1.425e+01       5.707e-01          -0.038          -0.071          -0.997       8.772e-02          0.2362
 126       7.417e+00      -1.425e+01       5.817e-01          -0.092          -0.095          -0.991       7.450e-02          0.3924
 127       7.275e+00      -1.425e+01       5.959e-01          -0.110          -0.104          -0.989       5.667e-02          0.5712
 128       7.176e+00      -1.425e+01       6.104e-01          -0.199          -0.146          -0.969       3.602e-02          0.7669
 129       7.125e+00      -1.425e+01       6.326e-01          -0.697          -0.376          -0.611       1.909e-02          0.0630
 130       7.125e+00      -1.425e+01       6.688e-01          -0.791          -0.373           0.485       2.531e-02         -2.9726
 131       7.176e+00      -1.425e+01       7.136e-01          -0.502          -0.216           0.837       4.228e-02         -2.8389
 132       7.275e+00      -1.425e+01       7.531e-01          -0.258          -0.093           0.962       5.861e-02         -2.2934
 133       7.417e+00      -1.425e+01       7.755e-01          -0.075          -0.005           0.997       7.422e-02         -1.6093
 134       7.592e+00      -1.424e+01       7.810e-01           0.006           0.032           0.999       8.748e-02         -1.0505
 135       7.791e+00      -1.425e+01       7.749e-01           0.053           0.051           0.997       9.607e-02         -0.7148
 136       8.003e+00      -1.425e+01       7.603e-01           0.084           0.064           0.994       9.920e-02         -0.4857
 137       8.215e+00      -1.425e+01       7.400e-01           0.106           0.072           0.992       9.656e-02         -0.3153
 138       8.414e+00      -1.425e+01       7.171e-01           0.122           0.078           0.989       8.826e-02         -0.1813
 139       8.590e+00      -1.425e+01       6.944e-01           0.135           0.082           0.987       7.476e-02         -0.0669
 140       8.731e+00      -1.425e+01       6.744e-01           0.146           0.085           0.986       5.684e-02          0.0408
 141       8.830e+00      -1.425e+01       6.594e-01           0.154           0.088           0.984       3.554e-02          0.1378
 142       8.881e+00      -1.425e+01       6.503e-01           0.240           0.111           0.964       1.231e-02          0.2496
Strip 6
 143       8.738e+00      -1.374e+01       6.212e-01           0.199           0.011          -0.980       1.563e-02          0.1578
 144       8.684e+00      -1.374e+01       6.139e-01           0.112          -0.014          -0.994       4.530e-02          0.1455
 145       8.578e+00      -1.374e+01       6.026e-01           0.103          -0.017          -0.995       7.251e-02          0.1192
 146       8.428e+00      -1.374e+01       5.880e-01           0.092          -0.020          -0.996       9.544e-02          0.0963
 147       8.242e+00      -1.374e+01       5.721e-01           0.079          -0.024          -0.997       1.128e-01          0.0882
 148       8.030e+00      -1.374e+01       5.571e-01           0.063          -0.030          -0.998       1.235e-01          0.0955
 149       7.805e+00      -1.374e+01       5.455e-01           0.041          -0.039          -0.998       1.271e-01          0.1208
 150       7.580e+00      -1.374e+01       5.399e-01           0.009          -0.052          -0.999       1.233e-01          0.1727
 151       7.369e+00      -1.374e+01       5.428e-01          -0.038          -0.071          -0.997       1.126e-01          0.2687
 152       7.182e+00      -1.374e+01       5.545e-01          -0.092          -0.095          -0.991       9.563e-02          0.4219
 153       7.032e+00      -1.374e+01       5.696e-01          -0.110          -0.104          -0.989       7.275e-02          0.5966
 154       6.927e+00      -1.374e+01       5.851e-01          -0.199          -0.146          -0.969       4.625e-02          0.7769
 155       6.872e+00      -1.374e+01       6.087e-01          -0.696          -0.375          -0.612       2.452e-02         -0.0140
 156       6.872e+00      -1.374e+01       6.471e-01          -0.792          -0.373           0.484       3.247e-02         -3.1612
 157       6.927e+00      -1.374e+01       6.947e-01          -0.503          -0.216           0.837       5.423e-02         -2.9652
 158       7.032e+00      -1.374e+01       7.366e-01          -0.258          -0.093           0.962       7.520e-02         -2.3834
 159       7.182e+00      -1.374e+01       7.605e-01          -0.075          -0.005           0.997       9.526e-02         -1.6765
 160       7.369e+00      -1.374e+01       7.663e-01           0.006           0.032           0.999       1.123e-01         -1.1037
 161       7.580e+00      -1.374e+01       7.598e-01           0.053           0.051           0.997       1.233e-01         -0.7600
 162       7.805e+00      -1.374e+01       7.443e-01           0.084           0.064           0.994       1.273e-01         -0.5236
 163       8.030e+00      -1.374e+01       7.228e-01           0.106           0.072           0.992       1.240e-01         -0.3455
 164       8.242e+00      -1.374e+01       6.985e-01           0.122           0.078           0.989       1.133e-01         -0.2032
 165       8.428e+00      -1.374e+01       6.743e-01           0.135           0.082           0.987       9.597e-02         -0.0807
 166       8.578e+00      -1.374e+01       6.531e-01           0.146           0.085           0.986       7.297e-02          0.0342
 167       8.684e+00      -1.374e+01       6.372e-01           0.154           0.088           0.984       4.562e-02          0.1372
 168       8.738e+00      -1.374e+01       6.274e-01           0.240           0.111           0.964       1.581e-02          0.2513
Strip 7
 169       8.568e+00      -1.314e+01       5.937e-01           0.199           0.011          -0.980       1.948e-02          0.1627
 170       8.510e+00      -1.314e+01       5.859e-01           0.112          -0.014          -0.994       5.646e-02          0.1521
 171       8.398e+00      -1.314e+01       5.738e-01           0.103          -0.017          -0.995       9.037e-02          0.1287
 172       8.237e+00      -1.314e+01       5.582e-01           0.092          -0.020          -0.996       1.190e-01          0.1085
 173       8.038e+00      -1.314e+01       5.411e-01           0.079          -0.024          -0.997       1.406e-01          0.1029
 174       7.811e+00      -1.314e+01       5.251e-01           0.063          -0.030          -0.998       1.540e-01          0.1121
 175       7.571e+00      -1.314e+01       5.127e-01           0.041          -0.039          -0.998       1.584e-01          0.1386
 176       7.330e+00      -1.314e+01       5.067e-01           0.009          -0.052          -0.999       1.537e-01          0.1908
 177       7.104e+00      -1.314e+01       5.098e-01          -0.038          -0.071          -0.997       1.404e-01          0.2860
 178       6.904e+00      -1.314e+01       5.224e-01          -0.092          -0.095          -0.991       1.192e-01          0.4372
 179       6.744e+00      -1.314e+01       5.385e-01          -0.110          -0.104          -0.989       9.070e-02          0.6093
 180       6.631e+00      -1.314e+01       5.550e-01          -0.199          -0.146          -0.969       5.768e-02          0.7814
 181       6.573e+00      -1.314e+01       5.803e-01          -0.696          -0.375          -0.613       3.059e-02         -0.0518
 182       6.573e+00      -1.314e+01       6.214e-01          -0.792          -0.373           0.483       4.045e-02         -3.2568
 183       6.631e+00      -1.314e+01       6.723e-01          -0.503          -0.216           0.837       6.755e-02         -3.0311
 184       6.744e+00      -1.314e+01       7.172e-01          -0.258          -0.093           0.962       9.371e-02         -2.4308
 185       6.904e+00      -1.314e+01       7.427e-01          -0.075          -0.005           0.997       1.187e-01         -1.7121
 186       7.104e+00      -1.314e+01       7.489e-01           0.006           0.032           0.999       1.400e-01         -1.1323
 187       7.330e+00      -1.314e+01       7.420e-01           0.053           0.051           0.997       1.537e-01         -0.7849
 188       7.571e+00      -1.314e+01       7.254e-01           0.084           0.064           0.994       1.588e-01         -0.5454
 189       7.811e+00      -1.314e+01       7.023e-01           0.106           0.072           0.992       1.545e-01         -0.3636
 190       8.038e+00      -1.314e+01       6.763e-01           0.122           0.078           0.989       1.413e-01         -0.2173
 191       8.237e+00      -1.314e+01       6.505e-01           0.135           0.082           0.987       1.197e-01         -0.0906
 192       8.398e+00      -1.314e+01       6.278e-01           0.146           0.085           0.986       9.098e-02          0.0283
 193       8.510e+00      -1.314e+01       6.107e-01           0.154           0.088           0.984       5.688e-02          0.1348
 194       8.568e+00      -1.314e+01       6.003e-01           0.240           0.111           0.964       1.971e-02          0.2505
Strip 8
 195       8.373e+00      -1.245e+01       5.621e-01           0.199           0.011          -0.980       2.376e-02          0.1654
 196       8.311e+00      -1.245e+01       5.536e-01           0.112          -0.014          -0.994       6.888e-02          0.1557
 197       8.190e+00      -1.245e+01       5.407e-01           0.103          -0.017          -0.995       1.102e-01          0.1340
 198       8.017e+00      -1.245e+01       5.239e-01           0.092          -0.020          -0.996       1.451e-01          0.1153
 199       7.803e+00      -1.245e+01       5.056e-01           0.079          -0.024          -0.997       1.715e-01          0.1109
 200       7.560e+00      -1.245e+01       4.884e-01           0.063          -0.030          -0.998       1.878e-01          0.1209
 201       7.301e+00      -1.245e+01       4.750e-01           0.041          -0.039          -0.998       1.933e-01          0.1477
 202       7.043e+00      -1.245e+01       4.686e-01           0.009          -0.052          -0.999       1.875e-01          0.1996
 203       6.799e+00      -1.245e+01       4.719e-01          -0.038          -0.071          -0.997       1.713e-01          0.2940
 204       6.585e+00      -1.245e+01       4.854e-01          -0.092          -0.095          -0.991       1.455e-01          0.4438
 205       6.412e+00      -1.245e+01       5.027e-01          -0.110          -0.104          -0.989       1.107e-01          0.6144
 206       6.291e+00      -1.245e+01       5.205e-01          -0.199          -0.146          -0.969       7.039e-02          0.7838
 207       6.229e+00      -1.245e+01       5.477e-01          -0.695          -0.375          -0.613       3.735e-02         -0.0574
 208       6.229e+00      -1.245e+01       5.918e-01          -0.793          -0.374           0.482       4.931e-02         -3.2801
 209       6.291e+00      -1.245e+01       6.466e-01          -0.503          -0.216           0.837       8.236e-02         -3.0510
 210       6.412e+00      -1.245e+01       6.948e-01          -0.258          -0.093           0.962       1.143e-01         -2.4470
 211       6.585e+00      -1.244e+01       7.222e-01          -0.075          -0.005           0.997       1.448e-01         -1.7257
 212       6.799e+00      -1.244e+01       7.289e-01           0.006           0.032           0.999       1.708e-01         -1.1443
 213       7.043e+00      -1.244e+01       7.214e-01           0.053           0.051           0.997       1.876e-01         -0.7962
 214       7.301e+00      -1.245e+01       7.036e-01           0.084           0.064           0.994       1.937e-01         -0.5558
 215       7.560e+00      -1.245e+01       6.789e-01           0.106           0.072           0.992       1.886e-01         -0.3728
 216       7.803e+00      -1.245e+01       6.509e-01           0.122           0.078           0.989       1.724e-01         -0.2248
 217       8.017e+00      -1.245e+01       6.231e-01           0.135           0.082           0.987       1.460e-01         -0.0961
 218       8.190e+00      -1.245e+01       5.987e-01           0.146           0.085           0.986       1.110e-01          0.0248
 219       8.311e+00      -1.245e+01       5.804e-01           0.154           0.088           0.984       6.940e-02          0.1332
 220       8.373e+00      -1.245e+01       5.692e-01           0.240           0.111           0.964       2.406e-02          0.2496
Strip 9
 221       8.155e+00      -1.167e+01       5.266e-01           0.199           0.011          -0.980       2.848e-02          0.1668
 222       8.087e+00      -1.167e+01       5.175e-01           0.112          -0.014          -0.994       8.258e-02          0.1576
 223       7.957e+00      -1.167e+01       5.035e-01           0.103          -0.017          -0.995       1.322e-01          0.1367
 224       7.771e+00      -1.167e+01       4.854e-01           0.092          -0.020          -0.996       1.740e-01          0.1187
 225       7.540e+00      -1.167e+01       4.656e-01           0.079          -0.024          -0.997       2.056e-01          0.1147
 226       7.277e+00      -1.167e+01       4.471e-01           0.063          -0.030          -0.998       2.252e-01          0.1247
 227       6.999e+00      -1.167e+01       4.327e-01           0.041          -0.039          -0.998       2.317e-01          0.1513
 228       6.720e+00      -1.167e+01       4.258e-01           0.009          -0.052          -0.999       2.249e-01          0.2025
 229       6.458e+00      -1.167e+01       4.294e-01          -0.038          -0.071          -0.997       2.054e-01          0.2959
 230       6.227e+00      -1.167e+01       4.439e-01          -0.092          -0.095          -0.991       1.745e-01          0.4446
 231       6.040e+00      -1.167e+01       4.626e-01          -0.110          -0.104          -0.989       1.327e-01          0.6143
 232       5.910e+00      -1.167e+01       4.817e-01          -0.199          -0.146          -0.969       8.443e-02          0.7851
 233       5.843e+00      -1.167e+01       5.110e-01          -0.695          -0.375          -0.614       4.482e-02         -0.0386
 234       5.843e+00      -1.167e+01       5.587e-01          -0.793          -0.374           0.481       5.909e-02         -3.2490
 235       5.910e+00      -1.167e+01       6.177e-01          -0.504          -0.216           0.836       9.869e-02         -3.0367
 236       6.040e+00      -1.167e+01       6.697e-01          -0.259          -0.093           0.962       1.370e-01         -2.4409
 237       6.227e+00      -1.167e+01       6.993e-01          -0.075          -0.005           0.997       1.736e-01         -1.7241
 238       6.458e+00      -1.167e+01       7.064e-01           0.006           0.032           0.999       2.048e-01         -1.1453
 239       6.720e+00      -1.167e+01       6.984e-01           0.053           0.051           0.997       2.249e-01         -0.7986
 240       6.999e+00      -1.167e+01       6.792e-01           0.084           0.064           0.994       2.323e-01         -0.5589
 241       7.277e+00      -1.167e+01       6.525e-01           0.106           0.072           0.992       2.261e-01         -0.3761
 242       7.540e+00      -1.167e+01       6.223e-01           0.122           0.078           0.989       2.067e-01         -0.2278
 243       7.771e+00      -1.167e+01       5.924e-01           0.135           0.082           0.987       1.751e-01         -0.0985
 244       7.957e+00      -1.167e+01       5.660e-01           0.146           0.085           0.986       1.331e-01          0.0231
 245       8.087e+00      -1.167e+01       5.463e-01           0.154           0.088           0.984       8.323e-02          0.1323
 246       8.155e+00      -1.167e+01       5.343e-01           0.240           0.111           0.964       2.885e-02          0.2490
Strip 10
 247       7.913e+00      -1.082e+01       4.874e-01           0.200           0.011          -0.980       3.365e-02          0.1677
 248       7.841e+00      -1.082e+01       4.776e-01           0.112          -0.014          -0.994       9.756e-02          0.1586
 249       7.700e+00      -1.082e+01       4.625e-01           0.103          -0.017          -0.995       1.562e-01          0.1378
 250       7.499e+00      -1.082e+01       4.429e-01           0.092          -0.020          -0.996       2.055e-01          0.1199
 251       7.249e+00      -1.082e+01       4.216e-01           0.079          -0.024          -0.997       2.429e-01          0.1158
 252       6.966e+00      -1.082e+01       4.016e-01           0.063          -0.030          -0.998       2.661e-01          0.1255
 253       6.665e+00      -1.082e+01       3.860e-01           0.041          -0.039          -0.998       2.738e-01          0.1513
 254       6.364e+00      -1.082e+01       3.786e-01           0.009          -0.052          -0.999       2.657e-01          0.2016
 255       6.081e+00      -1.082e+01       3.824e-01          -0.038          -0.071          -0.997       2.427e-01          0.2939
 256       5.831e+00      -1.082e+01       3.981e-01          -0.092          -0.095          -0.991       2.062e-01          0.4416
 257       5.630e+00      -1.082e+01       4.183e-01          -0.110          -0.104          -0.989       1.568e-01          0.6106
 258       5.489e+00      -1.082e+01       4.390e-01          -0.199          -0.146          -0.969       9.978e-02          0.7856
 259       5.417e+00      -1.082e+01       4.706e-01          -0.694          -0.374          -0.615       5.299e-02         -0.0022
 260       5.417e+00      -1.082e+01       5.221e-01          -0.794          -0.374           0.480       6.978e-02         -3.1775
 261       5.489e+00      -1.081e+01       5.858e-01          -0.504          -0.217           0.836       1.165e-01         -2.9969
 262       5.630e+00      -1.081e+01       6.420e-01          -0.259          -0.093           0.962       1.618e-01         -2.4183
 263       5.831e+00      -1.081e+01       6.739e-01          -0.075          -0.005           0.997       2.051e-01         -1.7113
 264       6.081e+00      -1.081e+01       6.816e-01           0.006           0.032           0.999       2.419e-01         -1.1385
 265       6.364e+00      -1.081e+01       6.730e-01           0.053           0.051           0.997       2.658e-01         -0.7951
 266       6.665e+00      -1.081e+01       6.522e-01           0.084           0.064           0.994       2.745e-01         -0.5573
 267       6.966e+00      -1.081e+01       6.234e-01           0.106           0.072           0.992       2.672e-01         -0.3756
 268       7.249e+00      -1.081e+01       5.908e-01           0.122           0.078           0.989       2.442e-01         -0.2278
 269       7.499e+00      -1.081e+01       5.585e-01           0.135           0.082           0.987       2.069e-01         -0.0988
 270       7.700e+00      -1.082e+01       5.300e-01           0.146           0.085           0.986       1.573e-01          0.0228
 271       7.841e+00      -1.082e+01       5.087e-01           0.154           0.088           0.984       9.835e-02          0.1321
 272       7.913e+00      -1.082e+01       4.957e-01           0.240           0.111           0.965       3.409e-02          0.2488
Strip 11
 273       7.651e+00      -9.886e+00       4.449e-01           0.200           0.011          -0.980       3.922e-02          0.1682
 274       7.573e+00      -9.886e+00       4.343e-01           0.112          -0.014          -0.994       1.137e-01          0.1590
 275       7.420e+00      -9.886e+00       4.180e-01           0.103          -0.017          -0.995       1.820e-01          0.1380
 276       7.203e+00      -9.887e+00       3.968e-01           0.092          -0.020          -0.996       2.396e-01          0.1197
 277       6.934e+00      -9.887e+00       3.738e-01           0.079          -0.024          -0.997       2.832e-01          0.1151
 278       6.628e+00      -9.887e+00       3.521e-01           0.063          -0.030          -0.998       3.102e-01          0.1241
 279       6.303e+00      -9.888e+00       3.353e-01           0.041          -0.039          -0.998       3.192e-01          0.1490
 280       5.977e+00      -9.888e+00       3.273e-01           0.009          -0.052          -0.999       3.098e-01          0.1980
 281       5.671e+00      -9.888e+00       3.314e-01          -0.038          -0.071          -0.997       2.829e-01          0.2890
 282       5.402e+00      -9.888e+00       3.484e-01          -0.092          -0.095          -0.991       2.404e-01          0.4357
 283       5.185e+00      -9.887e+00       3.702e-01          -0.110          -0.104          -0.989       1.829e-01          0.6042
 284       5.032e+00      -9.887e+00       3.926e-01          -0.199          -0.146          -0.969       1.164e-01          0.7852
 285       4.954e+00      -9.886e+00       4.267e-01          -0.694          -0.374          -0.615       6.182e-02          0.0468
 286       4.954e+00      -9.885e+00       4.823e-01          -0.794          -0.375           0.479       8.131e-02         -3.0753
 287       5.032e+00      -9.884e+00       5.512e-01          -0.504          -0.217           0.836       1.358e-01         -2.9373
 288       5.185e+00      -9.883e+00       6.119e-01          -0.259          -0.093           0.961       1.885e-01         -2.3830
 289       5.402e+00      -9.883e+00       6.464e-01          -0.075          -0.005           0.997       2.391e-01         -1.6905
 290       5.671e+00      -9.882e+00       6.547e-01           0.006           0.032           0.999       2.821e-01         -1.1262
 291       5.977e+00      -9.883e+00       6.454e-01           0.053           0.051           0.997       3.099e-01         -0.7874
 292       6.303e+00      -9.883e+00       6.230e-01           0.084           0.064           0.994       3.200e-01         -0.5524
 293       6.628e+00      -9.884e+00       5.918e-01           0.106           0.072           0.992       3.116e-01         -0.3725
 294       6.934e+00      -9.884e+00       5.566e-01           0.122           0.078           0.989       2.848e-01         -0.2260
 295       7.203e+00      -9.885e+00       5.217e-01           0.135           0.082           0.987       2.412e-01         -0.0978
 296       7.420e+00      -9.885e+00       4.909e-01           0.146           0.085           0.986       1.834e-01          0.0233
 297       7.573e+00      -9.886e+00       4.679e-01           0.154           0.088           0.984       1.147e-01          0.1323
 298       7.651e+00      -9.886e+00       4.538e-01           0.240           0.111           0.965       3.976e-02          0.2486
Strip 12
 299       7.370e+00      -8.888e+00       3.992e-01           0.200           0.011          -0.980       4.516e-02          0.1686
 300       7.285e+00      -8.888e+00       3.878e-01           0.112          -0.014          -0.994       1.310e-01          0.1590
 301       7.121e+00      -8.889e+00       3.702e-01           0.103          -0.017          -0.995       2.096e-01          0.1375
 302       6.886e+00      -8.889e+00       3.473e-01           0.092          -0.020          -0.996       2.759e-01          0.1186
 303       6.595e+00      -8.889e+00       3.225e-01           0.079          -0.024          -0.997       3.261e-01          0.1132
 304       6.265e+00      -8.890e+00       2.991e-01           0.063          -0.030          -0.998       3.572e-01          0.1212
 305       5.914e+00      -8.890e+00       2.809e-01           0.041          -0.039          -0.998       3.675e-01          0.1449
 306       5.563e+00      -8.890e+00       2.722e-01           0.009          -0.052          -0.999       3.567e-01          0.1925
 307       5.232e+00      -8.890e+00       2.767e-01          -0.038          -0.071          -0.997       3.258e-01          0.2820
 308       4.941e+00      -8.890e+00       2.951e-01          -0.092          -0.095          -0.991       2.769e-01          0.4276
 309       4.707e+00      -8.889e+00       3.186e-01          -0.110          -0.104          -0.989       2.107e-01          0.5954
 310       4.542e+00      -8.889e+00       3.427e-01          -0.199          -0.146          -0.969       1.340e-01          0.7836
 311       4.458e+00      -8.889e+00       3.796e-01          -0.693          -0.374          -0.616       7.124e-02          0.1051
 312       4.458e+00      -8.888e+00       4.397e-01          -0.794          -0.375           0.478       9.359e-02         -2.9485
 313       4.542e+00      -8.887e+00       5.140e-01          -0.505          -0.217           0.836       1.563e-01         -2.8618
 314       4.707e+00      -8.886e+00       5.796e-01          -0.259          -0.093           0.961       2.170e-01         -2.3376
 315       4.941e+00      -8.885e+00       6.169e-01          -0.075          -0.005           0.997       2.754e-01         -1.6632
 316       5.232e+00      -8.885e+00       6.259e-01           0.006           0.032           0.999       3.248e-01         -1.1096
 317       5.563e+00      -8.885e+00       6.158e-01           0.053           0.051           0.997       3.569e-01         -0.7766
 318       5.914e+00      -8.886e+00       5.916e-01           0.084           0.064           0.994       3.686e-01         -0.5452
 319       6.265e+00      -8.886e+00       5.579e-01           0.106           0.072           0.992       3.588e-01         -0.3677
 320       6.595e+00      -8.887e+00       5.199e-01           0.122           0.078           0.989       3.280e-01         -0.2228
 321       6.886e+00      -8.887e+00       4.822e-01           0.135           0.082           0.987       2.779e-01         -0.0958
 322       7.121e+00      -8.888e+00       4.490e-01           0.146           0.085           0.986       2.113e-01          0.0244
 323       7.285e+00      -8.888e+00       4.241e-01           0.154           0.088           0.984       1.321e-01          0.1327
 324       7.370e+00      -8.888e+00       4.089e-01           0.240           0.111           0.965       4.579e-02          0.2486
Strip 13
 325       7.071e+00      -7.830e+00       3.508e-01           0.200           0.011          -0.980       5.140e-02          0.1687
 326       6.980e+00      -7.830e+00       3.385e-01           0.112          -0.014          -0.994       1.491e-01          0.1587
 327       6.803e+00      -7.830e+00       3.195e-01           0.103          -0.017          -0.995       2.386e-01          0.1365
 328       6.550e+00      -7.831e+00       2.949e-01           0.092          -0.020          -0.996       3.140e-01          0.1168
 329       6.236e+00      -7.831e+00       2.680e-01           0.079          -0.024          -0.997       3.711e-01          0.1105
 330       5.880e+00      -7.831e+00       2.428e-01           0.063          -0.030          -0.998       4.065e-01          0.1173
 331       5.501e+00      -7.831e+00       2.233e-01           0.041          -0.039          -0.998       4.183e-01          0.1395
 332       5.123e+00      -7.831e+00       2.139e-01           0.009          -0.052          -0.999       4.060e-01          0.1854
 333       4.766e+00      -7.831e+00       2.187e-01          -0.038          -0.071          -0.997       3.709e-01          0.2731
 334       4.452e+00      -7.831e+00       2.385e-01          -0.092          -0.095          -0.991       3.152e-01          0.4175
 335       4.200e+00      -7.831e+00       2.639e-01          -0.110          -0.104          -0.989       2.398e-01          0.5844
 336       4.022e+00      -7.831e+00       2.899e-01          -0.199          -0.146          -0.969       1.526e-01          0.7803
 337       3.931e+00      -7.830e+00       3.297e-01          -0.693          -0.374          -0.616       8.113e-02          0.1704
 338       3.931e+00      -7.829e+00       3.945e-01          -0.795          -0.375           0.477       1.065e-01         -2.8008
 339       4.022e+00      -7.829e+00       4.747e-01          -0.505          -0.217           0.835       1.778e-01         -2.7722
 340       4.200e+00      -7.828e+00       5.453e-01          -0.259          -0.093           0.961       2.470e-01         -2.2833
 341       4.452e+00      -7.827e+00       5.855e-01          -0.075          -0.005           0.997       3.134e-01         -1.6302
 342       4.766e+00      -7.827e+00       5.953e-01           0.006           0.032           0.999       3.697e-01         -1.0894
 343       5.123e+00      -7.827e+00       5.844e-01           0.053           0.051           0.997       4.062e-01         -0.7632
 344       5.501e+00      -7.828e+00       5.583e-01           0.084           0.064           0.994       4.196e-01         -0.5361
 345       5.880e+00      -7.828e+00       5.220e-01           0.106           0.072           0.992       4.085e-01         -0.3615
 346       6.236e+00      -7.828e+00       4.810e-01           0.122           0.078           0.989       3.734e-01         -0.2187
 347       6.550e+00      -7.829e+00       4.403e-01           0.135           0.082           0.987       3.163e-01         -0.0932
 348       6.803e+00      -7.829e+00       4.045e-01           0.146           0.085           0.986       2.405e-01          0.0259
 349       6.980e+00      -7.830e+00       3.777e-01           0.154           0.088           0.984       1.504e-01          0.1333
 350       7.071e+00      -7.830e+00       3.613e-01           0.239           0.111           0.965       5.213e-02          0.2485
Strip 14
 351       6.758e+00      -6.718e+00       3.000e-01           0.200           0.011          -0.980       5.785e-02          0.1686
 352       6.660e+00      -6.718e+00       2.867e-01           0.112          -0.014          -0.994       1.678e-01          0.1581
 353       6.469e+00      -6.718e+00       2.663e-01           0.103          -0.017          -0.995       2.685e-01          0.1352
 354       6.197e+00      -6.719e+00       2.397e-01           0.092          -0.020          -0.996       3.535e-01          0.1145
 355       5.859e+00      -6.719e+00       2.109e-01           0.079          -0.024          -0.997       4.177e-01          0.1070
 356       5.475e+00      -6.719e+00       1.837e-01           0.063          -0.030          -0.998       4.576e-01          0.1124
 357       5.068e+00      -6.719e+00       1.626e-01           0.041          -0.039          -0.998       4.709e-01          0.1329
 358       4.661e+00      -6.719e+00       1.525e-01           0.009          -0.052          -0.999       4.570e-01          0.1768
 359       4.277e+00      -6.719e+00       1.578e-01          -0.038          -0.071          -0.997       4.175e-01          0.2625
 360       3.939e+00      -6.719e+00       1.790e-01          -0.092          -0.095          -0.991       3.548e-01          0.4055
 361       3.667e+00      -6.719e+00       2.064e-01          -0.110          -0.104          -0.989       2.700e-01          0.5713
 362       3.476e+00      -6.719e+00       2.344e-01          -0.199          -0.146          -0.969       1.718e-01          0.7749
 363       3.378e+00      -6.718e+00       2.772e-01          -0.693          -0.374          -0.617       9.137e-02          0.2413
 364       3.378e+00      -6.718e+00       3.470e-01          -0.795          -0.375           0.476       1.198e-01         -2.6330
 365       3.476e+00      -6.717e+00       4.333e-01          -0.505          -0.217           0.835       2.000e-01         -2.6687
 366       3.667e+00      -6.716e+00       5.094e-01          -0.259          -0.093           0.961       2.779e-01         -2.2201
 367       3.939e+00      -6.716e+00       5.526e-01          -0.075          -0.005           0.997       3.528e-01         -1.5919
 368       4.277e+00      -6.716e+00       5.631e-01           0.006           0.032           0.999       4.162e-01         -1.0659
 369       4.661e+00      -6.716e+00       5.514e-01           0.053           0.051           0.997       4.573e-01         -0.7476
 370       5.068e+00      -6.716e+00       5.233e-01           0.084           0.064           0.994       4.724e-01         -0.5254
 371       5.475e+00      -6.716e+00       4.842e-01           0.106           0.072           0.992       4.599e-01         -0.3542
 372       5.859e+00      -6.717e+00       4.401e-01           0.122           0.078           0.989       4.204e-01         -0.2138
 373       6.197e+00      -6.717e+00       3.963e-01           0.135           0.082           0.987       3.561e-01         -0.0901
 374       6.469e+00      -6.718e+00       3.577e-01           0.146           0.085           0.986       2.707e-01          0.0275
 375       6.660e+00      -6.718e+00       3.289e-01           0.154           0.088           0.984       1.693e-01          0.1339
 376       6.758e+00      -6.718e+00       3.112e-01           0.239           0.111           0.965       5.869e-02          0.2484
Strip 15
 377       6.432e+00      -5.560e+00       2.470e-01           0.200           0.011          -0.980       6.441e-02          0.1684
 378       6.326e+00      -5.560e+00       2.327e-01           0.112          -0.014          -0.994       1.868e-01          0.1574
 379       6.121e+00      -5.561e+00       2.108e-01           0.103          -0.017          -0.995       2.990e-01          0.1335
 380       5.829e+00      -5.561e+00       1.823e-01           0.092          -0.020          -0.996       3.936e-01          0.1117
 381       5.466e+00      -5.561e+00       1.513e-01           0.079          -0.024          -0.997       4.651e-01          0.1029
 382       5.054e+00      -5.561e+00       1.221e-01           0.063          -0.030          -0.998       5.095e-01          0.1068
 383       4.617e+00      -5.561e+00       9.954e-02           0.041          -0.039          -0.998       5.243e-01          0.1253
 384       4.179e+00      -5.561e+00       8.867e-02           0.009          -0.052          -0.999       5.089e-01          0.1669
 385       3.767e+00      -5.561e+00       9.430e-02          -0.038          -0.071          -0.997       4.649e-01          0.2502
 386       3.405e+00      -5.561e+00       1.172e-01          -0.092          -0.095          -0.991       3.951e-01          0.3914
 387       3.112e+00      -5.561e+00       1.465e-01          -0.110          -0.104          -0.989       3.007e-01          0.5555
 388       2.907e+00      -5.561e+00       1.766e-01          -0.199          -0.146          -0.969       1.914e-01          0.7665
 389       2.802e+00      -5.560e+00       2.226e-01          -0.692          -0.374          -0.617       1.018e-01          0.3176
 390       2.802e+00      -5.560e+00       2.975e-01          -0.795          -0.375           0.476       1.334e-01         -2.4437
 391       2.907e+00      -5.559e+00       3.902e-01          -0.505          -0.217           0.835       2.226e-01         -2.5500
 392       3.112e+00      -5.559e+00       4.719e-01          -0.259          -0.093           0.961       3.094e-01         -2.1473
 393       3.405e+00      -5.558e+00       5.184e-01          -0.075          -0.005           0.997       3.928e-01         -1.5477
 394       3.767e+00      -5.558e+00       5.296e-01           0.006           0.032           0.999       4.635e-01         -1.0389
 395       4.179e+00      -5.558e+00       5.170e-01           0.053           0.051           0.997       5.093e-01         -0.7299
 396       4.617e+00      -5.559e+00       4.868e-01           0.084           0.064           0.994       5.260e-01         -0.5135
 397       5.054e+00      -5.559e+00       4.449e-01           0.106           0.072           0.992       5.121e-01         -0.3462
 398       5.466e+00      -5.559e+00       3.975e-01           0.122           0.078           0.989       4.681e-01         -0.2086
 399       5.829e+00      -5.560e+00       3.505e-01           0.135           0.082           0.987       3.965e-01         -0.0869
 400       6.121e+00      -5.560e+00       3.091e-01           0.146           0.085           0.986       3.015e-01          0.0292
 401       6.326e+00      -5.560e+00       2.781e-01           0.154           0.088           0.984       1.885e-01          0.1344
 402       6.432e+00      -5.560e+00       2.591e-01           0.239           0.111           0.965       6.537e-02          0.2481
Strip 16
 403       6.095e+00      -4.365e+00       1.924e-01           0.200           0.011          -0.980       7.096e-02          0.1680
 404       5.982e+00      -4.365e+00       1.770e-01           0.112          -0.014          -0.994       2.058e-01          0.1564
 405       5.762e+00      -4.365e+00       1.536e-01           0.103          -0.017          -0.995       3.295e-01          0.1315
 406       5.449e+00      -4.365e+00       1.230e-01           0.092          -0.020          -0.996       4.337e-01          0.1086
 407       5.061e+00      -4.365e+00       8.983e-02           0.079          -0.024          -0.997       5.125e-01          0.0984
 408       4.619e+00      -4.365e+00       5.857e-02           0.063          -0.030          -0.998       5.614e-01          0.1005
 409       4.151e+00      -4.365e+00       3.437e-02           0.041          -0.039          -0.998       5.777e-01          0.1169
 410       3.682e+00      -4.365e+00       2.272e-02           0.009          -0.052          -0.999       5.608e-01          0.1558
 411       3.241e+00      -4.365e+00       2.875e-02          -0.038          -0.071          -0.997       5.123e-01          0.2361
 412       2.852e+00      -4.365e+00       5.323e-02          -0.092          -0.095          -0.991       4.354e-01          0.3751
 413       2.539e+00      -4.365e+00       8.466e-02          -0.110          -0.104          -0.989       3.313e-01          0.5366
 414       2.320e+00      -4.365e+00       1.169e-01          -0.199          -0.146          -0.969       2.109e-01          0.7539
 415       2.207e+00      -4.365e+00       1.662e-01          -0.692          -0.373          -0.618       1.122e-01          0.3998
 416       2.207e+00      -4.364e+00       2.464e-01          -0.796          -0.376           0.475       1.469e-01         -2.2271
 417       2.320e+00      -4.364e+00       3.457e-01          -0.506          -0.217           0.835       2.452e-01         -2.4114
 418       2.539e+00      -4.363e+00       4.332e-01          -0.259          -0.093           0.961       3.409e-01         -2.0621
 419       2.852e+00      -4.363e+00       4.830e-01          -0.075          -0.005           0.997       4.328e-01         -1.4965
 420       3.241e+00      -4.363e+00       4.950e-01           0.006           0.032           0.999       5.107e-01         -1.0082
 421       3.682e+00      -4.363e+00       4.816e-01           0.053           0.051           0.997       5.612e-01         -0.7104
 422       4.151e+00      -4.363e+00       4.492e-01           0.084           0.064           0.994       5.797e-01         -0.5008
 423       4.619e+00      -4.363e+00       4.043e-01           0.106           0.072           0.992       5.643e-01         -0.3380
 424       5.061e+00      -4.364e+00       3.535e-01           0.122           0.078           0.989       5.159e-01         -0.2035
 425       5.449e+00      -4.364e+00       3.031e-01           0.135           0.082           0.987       4.370e-01         -0.0840
 426       5.762e+00      -4.364e+00       2.588e-01           0.146           0.085           0.986       3.323e-01          0.0305
 427       5.982e+00      -4.364e+00       2.256e-01           0.154           0.088           0.984       2.077e-01          0.1346
 428       6.095e+00      -4.365e+00       2.053e-01           0.239           0.111           0.965       7.203e-02          0.2475
Strip 17
 429       5.749e+00      -3.139e+00       1.363e-01           0.200           0.011          -0.980       7.738e-02          0.1671
 430       5.629e+00      -3.139e+00       1.200e-01           0.112          -0.014          -0.994       2.245e-01          0.1549
 431       5.394e+00      -3.139e+00       9.487e-02           0.103          -0.017          -0.995       3.593e-01          0.1292
 432       5.060e+00      -3.139e+00       6.228e-02           0.092          -0.020          -0.996       4.729e-01          0.1052
 433       4.645e+00      -3.139e+00       2.681e-02           0.079          -0.024          -0.997       5.589e-01          0.0936
 434       4.174e+00      -3.140e+00      -6.584e-03           0.063          -0.030          -0.998       6.123e-01          0.0940
 435       3.673e+00      -3.140e+00      -3.244e-02           0.041          -0.039          -0.998       6.300e-01          0.1081
 436       3.173e+00      -3.140e+00      -4.487e-02           0.009          -0.052          -0.999       6.116e-01          0.1439
 437       2.701e+00      -3.140e+00      -3.843e-02          -0.038          -0.071          -0.997       5.588e-01          0.2206
 438       2.287e+00      -3.140e+00      -1.229e-02          -0.092          -0.095          -0.991       4.749e-01          0.3562
 439       1.952e+00      -3.139e+00       2.128e-02          -0.110          -0.104          -0.989       3.614e-01          0.5137
 440       1.718e+00      -3.139e+00       5.572e-02          -0.199          -0.146          -0.969       2.301e-01          0.7352
 441       1.597e+00      -3.139e+00       1.084e-01          -0.692          -0.373          -0.618       1.224e-01          0.4905
 442       1.597e+00      -3.139e+00       1.940e-01          -0.796          -0.376           0.475       1.602e-01         -1.9692
 443       1.718e+00      -3.138e+00       3.001e-01          -0.506          -0.217           0.835       2.673e-01         -2.2420
 444       1.952e+00      -3.138e+00       3.936e-01          -0.259          -0.093           0.961       3.717e-01         -1.9574
 445       2.287e+00      -3.138e+00       4.467e-01          -0.075          -0.005           0.997       4.720e-01         -1.4346
 446       2.701e+00      -3.138e+00       4.596e-01           0.006           0.032           0.999       5.569e-01         -0.9729
 447       3.173e+00      -3.138e+00       4.452e-01           0.053           0.051           0.997       6.120e-01         -0.6897
 448       3.673e+00      -3.138e+00       4.106e-01           0.084           0.064           0.994       6.322e-01         -0.4889
 449       4.174e+00      -3.138e+00       3.627e-01           0.106           0.072           0.992       6.155e-01         -0.3315
 450       4.645e+00      -3.138e+00       3.084e-01           0.122           0.078           0.989       5.626e-01         -0.2002
 451       5.060e+00      -3.139e+00       2.546e-01           0.135           0.082           0.987       4.766e-01         -0.0827
 452       5.394e+00      -3.139e+00       2.073e-01           0.146           0.085           0.986       3.624e-01          0.0306
 453       5.629e+00      -3.139e+00       1.718e-01           0.154           0.088           0.984       2.266e-01          0.1337
 454       5.749e+00      -3.139e+00       1.501e-01           0.239           0.111           0.965       7.857e-02          0.2460
Strip 18
 455       5.398e+00      -1.892e+00       7.927e-02           0.200           0.011          -0.980       8.353e-02          0.1652
 456       5.269e+00      -1.892e+00       6.186e-02           0.112          -0.014          -0.994       2.423e-01          0.1528
 457       5.020e+00      -1.892e+00       3.515e-02           0.103          -0.017          -0.995       3.878e-01          0.1264
 458       4.664e+00      -1.892e+00       4.508e-04           0.092          -0.020          -0.996       5.105e-01          0.1015
 459       4.222e+00      -1.892e+00      -3.732e-02           0.079          -0.024          -0.997       6.033e-01          0.0890
 460       3.720e+00      -1.892e+00      -7.288e-02           0.063          -0.030          -0.998       6.609e-01          0.0881
 461       3.187e+00      -1.892e+00      -1.004e-01           0.041          -0.039          -0.998       6.801e-01          0.1004
 462       2.654e+00      -1.892e+00      -1.136e-01           0.009          -0.052          -0.999       6.602e-01          0.1332
 463       2.153e+00      -1.892e+00      -1.068e-01          -0.038          -0.071          -0.997       6.032e-01          0.2053
 464       1.711e+00      -1.892e+00      -7.895e-02          -0.092          -0.095          -0.991       5.127e-01          0.3358
 465       1.355e+00      -1.892e+00      -4.320e-02          -0.110          -0.104          -0.989       3.901e-01          0.4860
 466       1.105e+00      -1.892e+00      -6.537e-03          -0.199          -0.146          -0.969       2.484e-01          0.7069
 467       9.769e-01      -1.892e+00       4.951e-02          -0.692          -0.373          -0.618       1.322e-01          0.5977
 468       9.769e-01      -1.892e+00       1.407e-01          -0.796          -0.376           0.474       1.729e-01         -1.6343
 469       1.105e+00      -1.892e+00       2.537e-01          -0.506          -0.217           0.835       2.885e-01         -2.0120
 470       1.355e+00      -1.892e+00       3.532e-01          -0.259          -0.093           0.961       4.012e-01         -1.8135
 471       1.711e+00      -1.891e+00       4.098e-01          -0.075          -0.005           0.997       5.095e-01         -1.3527
 472       2.153e+00      -1.891e+00       4.235e-01           0.006           0.032           0.999       6.013e-01         -0.9310
 473       2.654e+00      -1.891e+00       4.082e-01           0.053           0.051           0.997       6.607e-01         -0.6700
 474       3.187e+00      -1.891e+00       3.714e-01           0.084           0.064           0.994       6.825e-01         -0.4821
 475       3.720e+00      -1.892e+00       3.203e-01           0.106           0.072           0.992       6.645e-01         -0.3316
 476       4.222e+00      -1.892e+00       2.626e-01           0.122           0.078           0.989       6.074e-01         -0.2032
 477       4.664e+00      -1.892e+00       2.053e-01           0.135           0.082           0.987       5.146e-01         -0.0865
 478       5.020e+00      -1.892e+00       1.548e-01           0.146           0.085           0.986       3.912e-01          0.0271
 479       5.269e+00      -1.892e+00       1.171e-01           0.154           0.088           0.984       2.446e-01          0.1307
 480       5.398e+00      -1.892e+00       9.400e-02           0.239           0.111           0.965       8.483e-02          0.2430
Strip 19
 481       5.043e+00      -6.321e-01       2.165e-02           0.200           0.011          -0.980       8.927e-02          0.1613
 482       4.906e+00      -6.321e-01       3.170e-03           0.112          -0.014          -0.994       2.590e-01          0.1481
 483       4.641e+00      -6.321e-01      -2.518e-02           0.103          -0.017          -0.995       4.145e-01          0.1204
 484       4.264e+00      -6.322e-01      -6.202e-02           0.092          -0.020          -0.996       5.456e-01          0.0943
 485       3.795e+00      -6.322e-01      -1.021e-01           0.079          -0.024          -0.997       6.448e-01          0.0824
 486       3.262e+00      -6.322e-01      -1.399e-01           0.063          -0.030          -0.998       7.064e-01          0.0834
 487       2.696e+00      -6.322e-01      -1.691e-01           0.041          -0.039          -0.998       7.269e-01          0.0978
 488       2.131e+00      -6.322e-01      -1.831e-01           0.009          -0.052          -0.999       7.056e-01          0.1316
 489       1.598e+00      -6.322e-01      -1.759e-01          -0.038          -0.071          -0.997       6.447e-01          0.2018
 490       1.129e+00      -6.322e-01      -1.463e-01          -0.092          -0.095          -0.991       5.480e-01          0.3287
 491       7.512e-01      -6.322e-01      -1.084e-01          -0.110          -0.104          -0.989       4.170e-01          0.4667
 492       4.864e-01      -6.322e-01      -6.944e-02          -0.199          -0.146          -0.969       2.655e-01          0.6637
 493       3.501e-01      -6.321e-01      -9.938e-03          -0.691          -0.373          -0.619       1.413e-01          0.7214
 494       3.501e-01      -6.321e-01       8.688e-02          -0.796          -0.376           0.474       1.847e-01         -1.1019
 495       4.864e-01      -6.320e-01       2.068e-01          -0.506          -0.218           0.835       3.083e-01         -1.5956
 496       7.512e-01      -6.319e-01       3.124e-01          -0.259          -0.093           0.961       4.287e-01         -1.5316
 497       1.129e+00      -6.319e-01       3.725e-01          -0.075          -0.005           0.997       5.445e-01         -1.2041
 498       1.598e+00      -6.319e-01       3.871e-01           0.006           0.032           0.999       6.426e-01         -0.8804
 499       2.131e+00      -6.319e-01       3.708e-01           0.053           0.051           0.997       7.062e-01         -0.6629
 500       2.696e+00      -6.319e-01       3.318e-01           0.084           0.064           0.994       7.295e-01         -0.4964
 501       3.262e+00      -6.320e-01       2.775e-01           0.106           0.072           0.992       7.102e-01         -0.3550
 502       3.795e+00      -6.320e-01       2.162e-01           0.122           0.078           0.989       6.492e-01         -0.2284
 503       4.264e+00      -6.320e-01       1.554e-01           0.135           0.082           0.987       5.500e-01         -0.1084
 504       4.641e+00      -6.321e-01       1.019e-01           0.146           0.085           0.986       4.182e-01          0.0113
 505       4.906e+00      -6.321e-01       6.180e-02           0.154           0.088           0.984       2.614e-01          0.1209
 506       5.043e+00      -6.321e-01       3.729e-02           0.239           0.111           0.965       9.067e-02          0.2363
Strip 20
 507       5.043e+00       6.321e-01       2.165e-02           0.200          -0.011          -0.980       8.927e-02          0.1613
 508       4.906e+00       6.321e-01       3.170e-03           0.112           0.014          -0.994       2.590e-01          0.1481
 509       4.641e+00       6.321e-01      -2.518e-02           0.103           0.017          -0.995       4.145e-01          0.1204
 510       4.264e+00       6.322e-01      -6.202e-02           0.092           0.020          -0.996       5.456e-01          0.0943
 511       3.795e+00       6.322e-01      -1.021e-01           0.079           0.024          -0.997       6.448e-01          0.0824
 512       3.262e+00       6.322e-01      -1.399e-01           0.063           0.030          -0.998       7.064e-01          0.0834
 513       2.696e+00       6.322e-01      -1.691e-01           0.041           0.039          -0.998       7.269e-01          0.0978
 514       2.131e+00       6.322e-01      -1.831e-01           0.009           0.052          -0.999       7.056e-01          0.1316
 515       1.598e+00       6.322e-01      -1.759e-01          -0.038           0.071          -0.997       6.447e-01          0.2018
 516       1.129e+00       6.322e-01      -1.463e-01          -0.092           0.095          -0.991       5.480e-01          0.3287
 517       7.512e-01       6.322e-01      -1.084e-01          -0.110           0.104          -0.989       4.170e-01          0.4667
 518       4.864e-01       6.322e-01      -6.944e-02          -0.199           0.146          -0.969       2.655e-01          0.6637
 519       3.501e-01       6.321e-01      -9.938e-03          -0.691           0.373          -0.619       1.413e-01          0.7214
 520       3.501e-01       6.321e-01       8.688e-02          -0.796           0.376           0.474       1.847e-01         -1.1019
 521       4.864e-01       6.320e-01       2.068e-01          -0.506           0.218           0.835       3.083e-01         -1.5956
 522       7.512e-01       6.319e-01       3.124e-01          -0.259           0.093           0.961       4.287e-01         -1.5316
 523       1.129e+00       6.319e-01       3.725e-01          -0.075           0.005           0.997       5.445e-01         -1.2041
 524       1.598e+00       6.319e-01       3.871e-01           0.006          -0.032           0.999       6.426e-01         -0.8804
 525       2.131e+00       6.319e-01       3.708e-01           0.053          -0.051           0.997       7.062e-01         -0.6629
 526       2.696e+00       6.319e-01       3.318e-01           0.084          -0.064           0.994       7.295e-01         -0.4964
 527       3.262e+00       6.320e-01       2.775e-01           0.106          -0.072           0.992       7.102e-01         -0.3550
 528       3.795e+00       6.320e-01       2.162e-01           0.122          -0.078           0.989       6.492e-01         -0.2284
 529       4.264e+00       6.320e-01       1.554e-01           0.135          -0.082           0.987       5.500e-01         -0.1084
 530       4.641e+00       6.321e-01       1.019e-01           0.146          -0.085           0.986       4.182e-01          0.0113
 531       4.906e+00       6.321e-01       6.180e-02           0.154          -0.088           0.984       2.614e-01          0.1209
 532       5.043e+00       6.321e-01       3.729e-02           0.239          -0.111           0.965       9.067e-02          0.2363
Strip 21
 533       5.398e+00       1.892e+00       7.927e-02           0.200          -0.011          -0.980       8.353e-02          0.1652
 534       5.269e+00       1.892e+00       6.186e-02           0.112           0.014          -0.994       2.423e-01          0.1528
 535       5.020e+00       1.892e+00       3.515e-02           0.103           0.017          -0.995       3.878e-01          0.1264
 536       4.664e+00       1.892e+00       4.508e-04           0.092           0.020          -0.996       5.105e-01          0.1015
 537       4.222e+00       1.892e+00      -3.732e-02           0.079           0.024          -0.997       6.033e-01          0.0890
 538       3.720e+00       1.892e+00      -7.288e-02           0.063           0.030          -0.998       6.609e-01          0.0881
 539       3.187e+00       1.892e+00      -1.004e-01           0.041           0.039          -0.998       6.801e-01          0.1004
 540       2.654e+00       1.892e+00      -1.136e-01           0.009           0.052          -0.999       6.602e-01          0.1332
 541       2.153e+00       1.892e+00      -1.068e-01          -0.038           0.071          -0.997       6.032e-01          0.2053
 542       1.711e+00       1.892e+00      -7.895e-02          -0.092           0.095          -0.991       5.127e-01          0.3358
 543       1.355e+00       1.892e+00      -4.320e-02          -0.110           0.104          -0.989       3.901e-01          0.4860
 544       1.105e+00       1.892e+00      -6.537e-03          -0.199           0.146          -0.969       2.484e-01          0.7069
 545       9.769e-01       1.892e+00       4.951e-02          -0.692           0.373          -0.618       1.322e-01          0.5977
 546       9.769e-01       1.892e+00       1.407e-01          -0.796           0.376           0.474       1.729e-01         -1.6343
 547       1.105e+00       1.892e+00       2.537e-01          -0.506           0.217           0.835       2.885e-01         -2.0120
 548       1.355e+00       1.892e+00       3.532e-01          -0.259           0.093           0.961       4.012e-01         -1.8135
 549       1.711e+00       1.891e+00       4.098e-01          -0.075           0.005           0.997       5.095e-01         -1.3527
 550       2.153e+00       1.891e+00       4.235e-01           0.006          -0.032           0.999       6.013e-01         -0.9310
 551       2.654e+00       1.891e+00       4.082e-01           0.053          -0.051           0.997       6.607e-01         -0.6700
 552       3.187e+00       1.891e+00       3.714e-01           0.084          -0.064           0.994       6.825e-01         -0.4821
 553       3.720e+00       1.892e+00       3.203e-01           0.106          -0.072           0.992       6.645e-01         -0.3316
 554       4.222e+00       1.892e+00       2.626e-01           0.122          -0.078           0.989       6.074e-01         -0.2032
 555       4.664e+00       1.892e+00       2.053e-01           0.135          -0.082           0.987       5.146e-01         -0.0865
 556       5.020e+00       1.892e+00       1.548e-01           0.146          -0.085           0.986       3.912e-01          0.0271
 557       5.269e+00       1.892e+00       1.171e-01           0.154          -0.088           0.984       2.446e-01          0.1307
 558       5.398e+00       1.892e+00       9.400e-02           0.239          -0.111           0.965       8.483e-02          0.2430
Strip 22
 559       5.749e+00       3.139e+00       1.363e-01           0.200          -0.011          -0.980       7.738e-02          0.1671
 560       5.629e+00       3.139e+00       1.200e-01           0.112           0.014          -0.994       2.245e-01          0.1549
 561       5.394e+00       3.139e+00       9.487e-02           0.103           0.017          -0.995       3.593e-01          0.1292
 562       5.060e+00       3.139e+00       6.228e-02           0.092           0.020          -0.996       4.729e-01          0.1052
 563       4.645e+00       3.139e+00       2.681e-02           0.079           0.024          -0.997       5.589e-01          0.0936
 564       4.174e+00       3.140e+00      -6.584e-03           0.063           0.030          -0.998       6.123e-01          0.0940
 565       3.673e+00       3.140e+00      -3.244e-02           0.041           0.039          -0.998       6.300e-01          0.1081
 566       3.173e+00       3.140e+00      -4.487e-02           0.009           0.052          -0.999       6.116e-01          0.1439
 567       2.701e+00       3.140e+00      -3.843e-02          -0.038           0.071          -0.997       5.588e-01          0.2206
 568       2.287e+00       3.140e+00      -1.229e-02          -0.092           0.095          -0.991       4.749e-01          0.3562
[...]
 852       7.580e+00       1.374e+01       5.399e-01           0.009           0.052          -0.999       1.233e-01          0.1727
 853       7.369e+00       1.374e+01       5.428e-01          -0.038           0.071          -0.997       1.126e-01          0.2687
 854       7.182e+00       1.374e+01       5.545e-01          -0.092           0.095          -0.991       9.563e-02          0.4219
 855       7.032e+00       1.374e+01       5.696e-01          -0.110           0.104          -0.989       7.275e-02          0.5966
 856       6.927e+00       1.374e+01       5.851e-01          -0.199           0.146          -0.969       4.625e-02          0.7769
 857       6.872e+00       1.374e+01       6.087e-01          -0.696           0.375          -0.612       2.452e-02         -0.0140
 858       6.872e+00       1.374e+01       6.471e-01          -0.792           0.373           0.484       3.247e-02         -3.1612
 859       6.927e+00       1.374e+01       6.947e-01          -0.503           0.216           0.837       5.423e-02         -2.9652
 860       7.032e+00       1.374e+01       7.366e-01          -0.258           0.093           0.962       7.520e-02         -2.3834
 861       7.182e+00       1.374e+01       7.605e-01          -0.075           0.005           0.997       9.526e-02         -1.6765
 862       7.369e+00       1.374e+01       7.663e-01           0.006          -0.032           0.999       1.123e-01         -1.1037
 863       7.580e+00       1.374e+01       7.598e-01           0.053          -0.051           0.997       1.233e-01         -0.7600
 864       7.805e+00       1.374e+01       7.443e-01           0.084          -0.064           0.994       1.273e-01         -0.5236
 865       8.030e+00       1.374e+01       7.228e-01           0.106          -0.072           0.992       1.240e-01         -0.3455
 866       8.242e+00       1.374e+01       6.985e-01           0.122          -0.078           0.989       1.133e-01         -0.2032
 867       8.428e+00       1.374e+01       6.743e-01           0.135          -0.082           0.987       9.597e-02         -0.0807
 868       8.578e+00       1.374e+01       6.531e-01           0.146          -0.085           0.986       7.297e-02          0.0342
 869       8.684e+00       1.374e+01       6.372e-01           0.154          -0.088           0.984       4.562e-02          0.1372
 870       8.738e+00       1.374e+01       6.274e-01           0.240          -0.111           0.964       1.581e-02          0.2513
Strip 34
 871       8.881e+00       1.425e+01       6.444e-01           0.199          -0.011          -0.980       1.218e-02          0.1477
 872       8.830e+00       1.425e+01       6.375e-01           0.111           0.014          -0.994       3.530e-02          0.1329
 873       8.731e+00       1.425e+01       6.269e-01           0.103           0.017          -0.995       5.649e-02          0.1023
 874       8.590e+00       1.425e+01       6.132e-01           0.092           0.020          -0.996       7.436e-02          0.0752
 875       8.414e+00       1.425e+01       5.982e-01           0.079           0.024          -0.997       8.787e-02          0.0633
 876       8.215e+00       1.425e+01       5.841e-01           0.063           0.030          -0.998       9.625e-02          0.0671
 877       8.003e+00       1.425e+01       5.732e-01           0.041           0.039          -0.998       9.902e-02          0.0896
 878       7.791e+00       1.425e+01       5.679e-01           0.009           0.052          -0.999       9.608e-02          0.1399
 879       7.592e+00       1.425e+01       5.707e-01          -0.038           0.071          -0.997       8.772e-02          0.2362
 880       7.417e+00       1.425e+01       5.817e-01          -0.092           0.095          -0.991       7.450e-02          0.3924
 881       7.275e+00       1.425e+01       5.959e-01          -0.110           0.104          -0.989       5.667e-02          0.5712
 882       7.176e+00       1.425e+01       6.104e-01          -0.199           0.146          -0.969       3.602e-02          0.7669
 883       7.125e+00       1.425e+01       6.326e-01          -0.697           0.376          -0.611       1.909e-02          0.0630
 884       7.125e+00       1.425e+01       6.688e-01          -0.791           0.373           0.485       2.531e-02         -2.9726
 885       7.176e+00       1.425e+01       7.136e-01          -0.502           0.216           0.837       4.228e-02         -2.8389
 886       7.275e+00       1.425e+01       7.531e-01          -0.258           0.093           0.962       5.861e-02         -2.2934
 887       7.417e+00       1.425e+01       7.755e-01          -0.075           0.005           0.997       7.422e-02         -1.6093
 888       7.592e+00       1.424e+01       7.810e-01           0.006          -0.032           0.999       8.748e-02         -1.0505
 889       7.791e+00       1.425e+01       7.749e-01           0.053          -0.051           0.997       9.607e-02         -0.7148
 890       8.003e+00       1.425e+01       7.603e-01           0.084          -0.064           0.994       9.920e-02         -0.4857
 891       8.215e+00       1.425e+01       7.400e-01           0.106          -0.072           0.992       9.656e-02         -0.3153
 892       8.414e+00       1.425e+01       7.171e-01           0.122          -0.078           0.989       8.826e-02         -0.1813
 893       8.590e+00       1.425e+01       6.944e-01           0.135          -0.082           0.987       7.476e-02         -0.0669
 894       8.731e+00       1.425e+01       6.744e-01           0.146          -0.085           0.986       5.684e-02          0.0408
 895       8.830e+00       1.425e+01       6.594e-01           0.154          -0.088           0.984       3.554e-02          0.1378
 896       8.881e+00       1.425e+01       6.503e-01           0.240          -0.111           0.964       1.231e-02          0.2496
Strip 35
 897       8.997e+00       1.466e+01       6.632e-01           0.199          -0.011          -0.980       9.079e-03          0.1234
 898       8.948e+00       1.466e+01       6.567e-01           0.111           0.014          -0.994       2.631e-02          0.1056
 899       8.854e+00       1.466e+01       6.466e-01           0.103           0.017          -0.995       4.211e-02          0.0701
 900       8.720e+00       1.466e+01       6.335e-01           0.092           0.020          -0.996       5.543e-02          0.0390
 901       8.553e+00       1.466e+01       6.193e-01           0.079           0.024          -0.997       6.550e-02          0.0232
 902       8.364e+00       1.466e+01       6.059e-01           0.063           0.030          -0.998       7.174e-02          0.0224
 903       8.163e+00       1.466e+01       5.956e-01           0.041           0.039          -0.998       7.381e-02          0.0395
 904       7.962e+00       1.466e+01       5.906e-01           0.009           0.052          -0.999       7.162e-02          0.0846
 905       7.773e+00       1.466e+01       5.932e-01          -0.038           0.071          -0.997       6.538e-02          0.1785
 906       7.606e+00       1.466e+01       6.036e-01          -0.092           0.095          -0.991       5.552e-02          0.3380
 907       7.472e+00       1.466e+01       6.171e-01          -0.110           0.104          -0.989       4.223e-02          0.5234
 908       7.378e+00       1.466e+01       6.309e-01          -0.199           0.146          -0.969       2.684e-02          0.7423
 909       7.329e+00       1.466e+01       6.520e-01          -0.697           0.376          -0.610       1.422e-02          0.1801
 910       7.329e+00       1.466e+01       6.864e-01          -0.791           0.373           0.486       1.888e-02         -2.6729
 911       7.378e+00       1.466e+01       7.289e-01          -0.502           0.215           0.838       3.153e-02         -2.6370
 912       7.472e+00       1.466e+01       7.664e-01          -0.258           0.092           0.962       4.371e-02         -2.1459
 913       7.606e+00       1.466e+01       7.877e-01          -0.075           0.005           0.997       5.533e-02         -1.4971
 914       7.773e+00       1.466e+01       7.928e-01           0.006          -0.032           0.999       6.520e-02         -0.9619
 915       7.962e+00       1.466e+01       7.871e-01           0.053          -0.051           0.997       7.160e-02         -0.6424
 916       8.163e+00       1.466e+01       7.732e-01           0.084          -0.064           0.994       7.393e-02         -0.4294
 917       8.364e+00       1.466e+01       7.540e-01           0.106          -0.072           0.992       7.196e-02         -0.2761
 918       8.553e+00       1.466e+01       7.322e-01           0.123          -0.078           0.989       6.578e-02         -0.1584
 919       8.720e+00       1.466e+01       7.107e-01           0.135          -0.082           0.987       5.572e-02         -0.0583
 920       8.854e+00       1.466e+01       6.917e-01           0.146          -0.085           0.986       4.236e-02          0.0379
 921       8.948e+00       1.466e+01       6.775e-01           0.154          -0.088           0.984       2.648e-02          0.1259
 922       8.997e+00       1.466e+01       6.688e-01           0.240          -0.111           0.964       9.177e-03          0.2347
Strip 36
 923       9.084e+00       1.497e+01       6.774e-01           0.199          -0.011          -0.980       6.268e-03          0.0523
 924       9.038e+00       1.497e+01       6.711e-01           0.111           0.014          -0.994       1.817e-02          0.0326
 925       8.947e+00       1.497e+01       6.615e-01           0.103           0.017          -0.995       2.907e-02         -0.0051
 926       8.819e+00       1.497e+01       6.489e-01           0.092           0.020          -0.996       3.827e-02         -0.0352
 927       8.659e+00       1.497e+01       6.353e-01           0.079           0.024          -0.997       4.522e-02         -0.0492
 928       8.477e+00       1.497e+01       6.224e-01           0.063           0.030          -0.998       4.953e-02         -0.0497
 929       8.284e+00       1.497e+01       6.125e-01           0.041           0.039          -0.998       5.096e-02         -0.0364
 930       8.091e+00       1.497e+01       6.077e-01           0.009           0.052          -0.999       4.944e-02         -0.0004
 931       7.909e+00       1.497e+01       6.102e-01          -0.038           0.071          -0.997       4.513e-02          0.0811
 932       7.749e+00       1.497e+01       6.202e-01          -0.092           0.095          -0.991       3.832e-02          0.2354
 933       7.621e+00       1.497e+01       6.331e-01          -0.110           0.104          -0.989       2.915e-02          0.4280
 934       7.530e+00       1.497e+01       6.464e-01          -0.199           0.146          -0.969       1.853e-02          0.6787
 935       7.484e+00       1.497e+01       6.667e-01          -0.698           0.376          -0.610       9.811e-03          0.3198
 936       7.484e+00       1.497e+01       6.996e-01          -0.790           0.372           0.487       1.304e-02         -2.2576
 937       7.530e+00       1.497e+01       7.404e-01          -0.502           0.215           0.838       2.178e-02         -2.3465
 938       7.621e+00       1.497e+01       7.764e-01          -0.258           0.092           0.962       3.018e-02         -1.9225
 939       7.749e+00       1.497e+01       7.969e-01          -0.075           0.005           0.997       3.820e-02         -1.3241
 940       7.909e+00       1.497e+01       8.018e-01           0.006          -0.032           0.999       4.501e-02         -0.8314
 941       8.091e+00       1.497e+01       7.963e-01           0.053          -0.051           0.997       4.943e-02         -0.5501
 942       8.284e+00       1.497e+01       7.830e-01           0.084          -0.064           0.994       5.103e-02         -0.3755
 943       8.477e+00       1.497e+01       7.645e-01           0.106          -0.072           0.992       4.968e-02         -0.2573
 944       8.659e+00       1.497e+01       7.436e-01           0.123          -0.078           0.989       4.540e-02         -0.1695
 945       8.819e+00       1.497e+01       7.229e-01           0.135          -0.082           0.987       3.846e-02         -0.0934
 946       8.947e+00       1.497e+01       7.047e-01           0.146          -0.085           0.986       2.924e-02         -0.0153
 947       9.038e+00       1.497e+01       6.911e-01           0.154          -0.088           0.984       1.828e-02          0.0602
 948       9.084e+00       1.497e+01       6.827e-01           0.240          -0.111           0.964       6.334e-03          0.1666
Strip 37
 949       9.143e+00       1.518e+01       6.869e-01           0.199          -0.011          -0.980       3.673e-03         -0.2638
 950       9.098e+00       1.518e+01       6.808e-01           0.111           0.014          -0.994       1.064e-02         -0.2657
 951       9.010e+00       1.518e+01       6.714e-01           0.103           0.017          -0.995       1.703e-02         -0.2639
 952       8.885e+00       1.518e+01       6.592e-01           0.092           0.020          -0.996       2.242e-02         -0.2441
 953       8.729e+00       1.518e+01       6.460e-01           0.079           0.024          -0.997       2.649e-02         -0.2146
 954       8.553e+00       1.518e+01       6.335e-01           0.063           0.030          -0.998       2.902e-02         -0.1847
 955       8.365e+00       1.518e+01       6.238e-01           0.041           0.039          -0.998       2.985e-02         -0.1544
 956       8.178e+00       1.518e+01       6.192e-01           0.009           0.052          -0.999       2.896e-02         -0.1167
 957       8.001e+00       1.518e+01       6.216e-01          -0.038           0.071          -0.997       2.644e-02         -0.0535
 958       7.846e+00       1.518e+01       6.314e-01          -0.092           0.095          -0.991       2.245e-02          0.0650
 959       7.720e+00       1.518e+01       6.439e-01          -0.110           0.104          -0.989       1.708e-02          0.2336
 960       7.633e+00       1.518e+01       6.568e-01          -0.200           0.146          -0.969       1.085e-02          0.5024
 961       7.587e+00       1.518e+01       6.765e-01          -0.698           0.376          -0.609       5.746e-03          0.3969
 962       7.587e+00       1.518e+01       7.085e-01          -0.790           0.372           0.487       7.640e-03         -1.7628
 963       7.633e+00       1.518e+01       7.482e-01          -0.501           0.215           0.838       1.276e-02         -1.9554
 964       7.720e+00       1.517e+01       7.831e-01          -0.258           0.092           0.962       1.768e-02         -1.5936
 965       7.846e+00       1.517e+01       8.030e-01          -0.075           0.005           0.997       2.238e-02         -1.0830
 966       8.001e+00       1.517e+01       8.078e-01           0.006          -0.032           0.999       2.637e-02         -0.6871
 967       8.178e+00       1.517e+01       8.024e-01           0.053          -0.051           0.997       2.896e-02         -0.4896
 968       8.365e+00       1.517e+01       7.895e-01           0.084          -0.064           0.994       2.990e-02         -0.3860
 969       8.553e+00       1.518e+01       7.716e-01           0.106          -0.072           0.992       2.910e-02         -0.3344
 970       8.729e+00       1.518e+01       7.513e-01           0.123          -0.078           0.989       2.660e-02         -0.3174
 971       8.885e+00       1.518e+01       7.312e-01           0.135          -0.082           0.987       2.253e-02         -0.3186
 972       9.010e+00       1.518e+01       7.135e-01           0.146          -0.085           0.986       1.713e-02         -0.3149
 973       9.098e+00       1.518e+01       7.002e-01           0.154          -0.088           0.984       1.071e-02         -0.2939
 974       9.143e+00       1.518e+01       6.921e-01           0.240          -0.111           0.964       3.711e-03         -0.1966
Strip 38
 975       9.172e+00       1.528e+01       6.917e-01           0.199          -0.011          -0.980       1.209e-03         -0.7174
 976       9.128e+00       1.528e+01       6.857e-01           0.111           0.014          -0.994       3.504e-03         -0.6950
 977       9.041e+00       1.528e+01       6.764e-01           0.103           0.017          -0.995       5.609e-03         -0.6315
 978       8.918e+00       1.528e+01       6.644e-01           0.092           0.020          -0.996       7.383e-03         -0.5247
 979       8.765e+00       1.529e+01       6.513e-01           0.079           0.024          -0.997       8.724e-03         -0.4175
 980       8.591e+00       1.529e+01       6.390e-01           0.063           0.030          -0.998       9.555e-03         -0.3297
 981       8.406e+00       1.529e+01       6.295e-01           0.041           0.039          -0.998       9.830e-03         -0.2621
 982       8.221e+00       1.529e+01       6.249e-01           0.009           0.052          -0.999       9.537e-03         -0.2051
 983       8.047e+00       1.529e+01       6.273e-01          -0.038           0.071          -0.997       8.706e-03         -0.1423
 984       7.894e+00       1.529e+01       6.369e-01          -0.092           0.095          -0.991       7.392e-03         -0.0530
 985       7.770e+00       1.529e+01       6.493e-01          -0.110           0.104          -0.989       5.622e-03          0.0766
 986       7.684e+00       1.528e+01       6.620e-01          -0.200           0.146          -0.969       3.573e-03          0.3188
 987       7.639e+00       1.528e+01       6.814e-01          -0.698           0.376          -0.609       1.891e-03          0.4449
 988       7.639e+00       1.528e+01       7.130e-01          -0.790           0.372           0.487       2.516e-03         -1.2565
 989       7.684e+00       1.528e+01       7.521e-01          -0.501           0.215           0.838       4.204e-03         -1.5217
 990       7.770e+00       1.528e+01       7.865e-01          -0.258           0.092           0.962       5.824e-03         -1.2309
 991       7.894e+00       1.528e+01       8.061e-01          -0.075           0.005           0.997       7.369e-03         -0.8515
 992       8.047e+00       1.528e+01       8.109e-01           0.006          -0.032           0.999       8.683e-03         -0.5779
 993       8.221e+00       1.528e+01       8.055e-01           0.053          -0.051           0.997       9.534e-03         -0.4572
 994       8.406e+00       1.528e+01       7.928e-01           0.084          -0.064           0.994       9.843e-03         -0.4049
 995       8.591e+00       1.528e+01       7.751e-01           0.106          -0.072           0.992       9.581e-03         -0.3989
 996       8.765e+00       1.528e+01       7.551e-01           0.123          -0.078           0.989       8.757e-03         -0.4358
 997       8.918e+00       1.528e+01       7.353e-01           0.135          -0.082           0.987       7.418e-03         -0.5108
 998       9.041e+00       1.528e+01       7.179e-01           0.146          -0.085           0.986       5.640e-03         -0.6033
 999       9.128e+00       1.528e+01       7.048e-01           0.154          -0.088           0.984       3.526e-03         -0.6924
1000       9.172e+00       1.528e+01       6.968e-01           0.240          -0.111           0.964       1.222e-03         -0.6454










