xflr5 v6.61

Plane Name
T1-10.0 m/s-Panel-Inviscid
QInf  =   10.000000 m/s
Alpha =    1.800000
Beta  =    0.000°
Phi   =    0.000°
Ctrl  =    0.000
CL    =    0.253639
Cy    =    0.000000
Cd    =    0.002111     ICd   =    0.002111     PCd   =    0.000000
Cl   = 5.59655e-16
Cm   =   -0.310452
ICn   =   -0.000000     PCn   =   -0.000000 
XCP   =    4.283635     YCP   =   -0.000000     ZCP   =    0.612951  
XNP   =    0.000000
Bending = 4606.650908

Main Wing
  y-span        Chord      Ai         Cl        PCd          ICd        CmGeom    CmAirf@chord/4    XTrtop    XTrBot      XCP       BM
  -15.2988     1.5557    -1.630    0.082689    0.000000    0.002354   -0.484473    0.002207     0.0000    0.0000    0.2200    0.0000
  -15.1943     1.5786    -1.243    0.137096    0.000000    0.002975   -0.715648   -0.000847     0.0000    0.0000    0.2503    0.0441
  -14.9860     1.6241    -1.077    0.186776    0.000000    0.003510   -0.892807    0.000826     0.0000    0.0000    0.2403    0.5747
  -14.6754     1.6920    -0.918    0.225307    0.000000    0.003610   -1.021467   -0.001779     0.0000    0.0000    0.2535    2.9012
  -14.2644     1.7818    -0.763    0.252020    0.000000    0.003356   -1.067913   -0.004794     0.0000    0.0000    0.2651    9.5269
  -13.7561     1.8930    -0.630    0.268660    0.000000    0.002953   -1.045205   -0.007031     0.0000    0.0000    0.2724   24.3114
  -13.1538     2.0246    -0.530    0.277843    0.000000    0.002572   -0.977115   -0.008433     0.0000    0.0000    0.2767   52.5091
  -12.4616     2.1759    -0.465    0.281904    0.000000    0.002285   -0.884396   -0.009249     0.0000    0.0000    0.2792   100.7358
  -11.6843     2.3459    -0.426    0.282520    0.000000    0.002100   -0.781599   -0.009707     0.0000    0.0000    0.2808   176.8884
  -10.8272     2.5332    -0.408    0.280781    0.000000    0.001997   -0.677829   -0.009955     0.0000    0.0000    0.2819   290.0062
   -9.8961     2.7367    -0.404    0.277353    0.000000    0.001954   -0.578391   -0.010079     0.0000    0.0000    0.2829   450.0609
   -8.8974     2.9551    -0.410    0.272631    0.000000    0.001951   -0.486120   -0.010130     0.0000    0.0000    0.2838   667.6580
   -7.8379     3.1866    -0.424    0.266828    0.000000    0.001972   -0.402312   -0.010141     0.0000    0.0000    0.2847   953.6448
   -6.7249     3.4299    -0.442    0.260032    0.000000    0.002003   -0.327356   -0.010137     0.0000    0.0000    0.2858   1318.6252
   -5.5660     3.6833    -0.462    0.252247    0.000000    0.002031   -0.261150   -0.010155     0.0000    0.0000    0.2872   1772.3913
   -4.3690     3.9449    -0.481    0.243409    0.000000    0.002041   -0.203362   -0.010266     0.0000    0.0000    0.2893   2323.2916
   -3.1422     4.2131    -0.494    0.233407    0.000000    0.002009   -0.153660   -0.010644     0.0000    0.0000    0.2931   2977.5609
   -1.8940     4.4860    -0.491    0.222154    0.000000    0.001900   -0.112013   -0.011759     0.0000    0.0000    0.3011   3738.6535
   -0.6328     4.7617    -0.466    0.209702    0.000000    0.001693   -0.079243   -0.015062     0.0000    0.0000    0.3222   4606.6509
    0.6328     4.7617    -0.466    0.209702    0.000000    0.001693   -0.079243   -0.015062     0.0000    0.0000    0.3222   4606.6509
    1.8940     4.4860    -0.491    0.222154    0.000000    0.001900   -0.112013   -0.011759     0.0000    0.0000    0.3011   3738.6535
    3.1422     4.2131    -0.494    0.233407    0.000000    0.002009   -0.153660   -0.010644     0.0000    0.0000    0.2931   2977.5609
    4.3690     3.9449    -0.481    0.243409    0.000000    0.002041   -0.203362   -0.010266     0.0000    0.0000    0.2893   2323.2916
    5.5660     3.6833    -0.462    0.252247    0.000000    0.002031   -0.261150   -0.010155     0.0000    0.0000    0.2872   1772.3913
    6.7249     3.4299    -0.442    0.260032    0.000000    0.002003   -0.327356   -0.010137     0.0000    0.0000    0.2858   1318.6252
    7.8379     3.1866    -0.424    0.266828    0.000000    0.001972   -0.402312   -0.010141     0.0000    0.0000    0.2847   953.6448
    8.8974     2.9551    -0.410    0.272631    0.000000    0.001951   -0.486120   -0.010130     0.0000    0.0000    0.2838   667.6580
    9.8961     2.7367    -0.404    0.277353    0.000000    0.001954   -0.578391   -0.010079     0.0000    0.0000    0.2829   450.0609
   10.8272     2.5332    -0.408    0.280781    0.000000    0.001997   -0.677829   -0.009955     0.0000    0.0000    0.2819   290.0062
   11.6843     2.3459    -0.426    0.282520    0.000000    0.002100   -0.781599   -0.009707     0.0000    0.0000    0.2808   176.8884
   12.4616     2.1759    -0.465    0.281904    0.000000    0.002285   -0.884396   -0.009249     0.0000    0.0000    0.2792   100.7358
   13.1538     2.0246    -0.530    0.277843    0.000000    0.002572   -0.977115   -0.008433     0.0000    0.0000    0.2767   52.5091
   13.7561     1.8930    -0.630    0.268660    0.000000    0.002953   -1.045205   -0.007031     0.0000    0.0000    0.2724   24.3114
   14.2644     1.7818    -0.763    0.252020    0.000000    0.003356   -1.067913   -0.004794     0.0000    0.0000    0.2651    9.5269
   14.6754     1.6920    -0.918    0.225307    0.000000    0.003610   -1.021467   -0.001779     0.0000    0.0000    0.2535    2.9012
   14.9860     1.6241    -1.077    0.186776    0.000000    0.003510   -0.892807    0.000826     0.0000    0.0000    0.2403    0.5747
   15.1943     1.5786    -1.243    0.137096    0.000000    0.002975   -0.715648   -0.000847     0.0000    0.0000    0.2503    0.0441
   15.2988     1.5557    -1.630    0.082689    0.000000    0.002354   -0.484473    0.002207     0.0000    0.0000    0.2200    0.0000


Main Wing Cp Coefficients
 Panel     CtrlPt.x        CtrlPt.y        CtrlPt.z       Nx      Ny       Nz        Area       Cp
Main WingCp Coefficients
Strip 1
  13       9.172e+00      -1.528e+01       6.917e-01           0.199           0.011          -0.980       1.209e-03          0.0590
  14       9.128e+00      -1.528e+01       6.857e-01           0.111          -0.014          -0.994       3.504e-03          0.0205
  15       9.041e+00      -1.528e+01       6.764e-01           0.103          -0.017          -0.995       5.609e-03         -0.0115
  16       8.918e+00      -1.528e+01       6.644e-01           0.092          -0.020          -0.996       7.383e-03         -0.0368
  17       8.765e+00      -1.529e+01       6.513e-01           0.079          -0.024          -0.997       8.724e-03         -0.0568
  18       8.591e+00      -1.529e+01       6.390e-01           0.063          -0.030          -0.998       9.555e-03         -0.0756
  19       8.406e+00      -1.529e+01       6.295e-01           0.041          -0.039          -0.998       9.830e-03         -0.0951
  20       8.221e+00      -1.529e+01       6.249e-01           0.009          -0.052          -0.999       9.537e-03         -0.1144
  21       8.047e+00      -1.529e+01       6.273e-01          -0.038          -0.071          -0.997       8.706e-03         -0.1238
  22       7.894e+00      -1.529e+01       6.369e-01          -0.092          -0.095          -0.991       7.392e-03         -0.1039
  23       7.770e+00      -1.529e+01       6.493e-01          -0.110          -0.104          -0.989       5.622e-03         -0.1077
  24       7.684e+00      -1.528e+01       6.620e-01          -0.200          -0.146          -0.969       3.573e-03         -0.2308
  25       7.639e+00      -1.528e+01       6.814e-01          -0.698          -0.376          -0.609       1.891e-03          0.3295
  26       7.639e+00      -1.528e+01       7.130e-01          -0.790          -0.372           0.487       2.516e-03          0.3374
  27       7.684e+00      -1.528e+01       7.521e-01          -0.501          -0.215           0.838       4.204e-03         -0.3396
  28       7.770e+00      -1.528e+01       7.865e-01          -0.258          -0.092           0.962       5.824e-03         -0.5099
  29       7.894e+00      -1.528e+01       8.061e-01          -0.075          -0.005           0.997       7.369e-03         -0.4161
  30       8.047e+00      -1.528e+01       8.109e-01           0.006           0.032           0.999       8.683e-03         -0.2768
  31       8.221e+00      -1.528e+01       8.055e-01           0.053           0.051           0.997       9.534e-03         -0.1971
  32       8.406e+00      -1.528e+01       7.928e-01           0.084           0.064           0.994       9.843e-03         -0.1432
  33       8.591e+00      -1.528e+01       7.751e-01           0.106           0.072           0.992       9.581e-03         -0.1019
  34       8.765e+00      -1.528e+01       7.551e-01           0.123           0.078           0.989       8.757e-03         -0.0684
  35       8.918e+00      -1.528e+01       7.353e-01           0.135           0.082           0.987       7.418e-03         -0.0389
  36       9.041e+00      -1.528e+01       7.179e-01           0.146           0.085           0.986       5.640e-03         -0.0086
  37       9.128e+00      -1.528e+01       7.048e-01           0.154           0.088           0.984       3.526e-03          0.0168
  38       9.172e+00      -1.528e+01       6.968e-01           0.240           0.111           0.964       1.222e-03          0.0748
Strip 2
  39       9.143e+00      -1.518e+01       6.869e-01           0.199           0.011          -0.980       3.673e-03          0.1331
  40       9.098e+00      -1.518e+01       6.808e-01           0.111          -0.014          -0.994       1.064e-02          0.0854
  41       9.010e+00      -1.518e+01       6.714e-01           0.103          -0.017          -0.995       1.703e-02          0.0368
  42       8.885e+00      -1.518e+01       6.592e-01           0.092          -0.020          -0.996       2.242e-02         -0.0069
  43       8.729e+00      -1.518e+01       6.460e-01           0.079          -0.024          -0.997       2.649e-02         -0.0413
  44       8.553e+00      -1.518e+01       6.335e-01           0.063          -0.030          -0.998       2.902e-02         -0.0726
  45       8.365e+00      -1.518e+01       6.238e-01           0.041          -0.039          -0.998       2.985e-02         -0.1037
  46       8.178e+00      -1.518e+01       6.192e-01           0.009          -0.052          -0.999       2.896e-02         -0.1332
  47       8.001e+00      -1.518e+01       6.216e-01          -0.038          -0.071          -0.997       2.644e-02         -0.1466
  48       7.846e+00      -1.518e+01       6.314e-01          -0.092          -0.095          -0.991       2.245e-02         -0.1164
  49       7.720e+00      -1.518e+01       6.439e-01          -0.110          -0.104          -0.989       1.708e-02         -0.1077
  50       7.633e+00      -1.518e+01       6.568e-01          -0.200          -0.146          -0.969       1.085e-02         -0.2134
  51       7.587e+00      -1.518e+01       6.765e-01          -0.698          -0.376          -0.609       5.746e-03          0.3750
  52       7.587e+00      -1.518e+01       7.085e-01          -0.790          -0.372           0.487       7.640e-03          0.3929
  53       7.633e+00      -1.518e+01       7.482e-01          -0.501          -0.215           0.838       1.276e-02         -0.3807
  54       7.720e+00      -1.517e+01       7.831e-01          -0.258          -0.092           0.962       1.768e-02         -0.6593
  55       7.846e+00      -1.517e+01       8.030e-01          -0.075          -0.005           0.997       2.238e-02         -0.5589
  56       8.001e+00      -1.517e+01       8.078e-01           0.006           0.032           0.999       2.637e-02         -0.3685
  57       8.178e+00      -1.517e+01       8.024e-01           0.053           0.051           0.997       2.896e-02         -0.2531
  58       8.365e+00      -1.517e+01       7.895e-01           0.084           0.064           0.994       2.990e-02         -0.1769
  59       8.553e+00      -1.518e+01       7.716e-01           0.106           0.072           0.992       2.910e-02         -0.1204
  60       8.729e+00      -1.518e+01       7.513e-01           0.123           0.078           0.989       2.660e-02         -0.0750
  61       8.885e+00      -1.518e+01       7.312e-01           0.135           0.082           0.987       2.253e-02         -0.0321
  62       9.010e+00      -1.518e+01       7.135e-01           0.146           0.085           0.986       1.713e-02          0.0183
  63       9.098e+00      -1.518e+01       7.002e-01           0.154           0.088           0.984       1.071e-02          0.0732
  64       9.143e+00      -1.518e+01       6.921e-01           0.240           0.111           0.964       3.711e-03          0.1471
Strip 3
  65       9.084e+00      -1.497e+01       6.774e-01           0.199           0.011          -0.980       6.268e-03          0.1666
  66       9.038e+00      -1.497e+01       6.711e-01           0.111          -0.014          -0.994       1.817e-02          0.1153
  67       8.947e+00      -1.497e+01       6.615e-01           0.103          -0.017          -0.995       2.907e-02          0.0600
  68       8.819e+00      -1.497e+01       6.489e-01           0.092          -0.020          -0.996       3.827e-02          0.0063
  69       8.659e+00      -1.497e+01       6.353e-01           0.079          -0.024          -0.997       4.522e-02         -0.0374
  70       8.477e+00      -1.497e+01       6.224e-01           0.063          -0.030          -0.998       4.953e-02         -0.0764
  71       8.284e+00      -1.497e+01       6.125e-01           0.041          -0.039          -0.998       5.096e-02         -0.1138
  72       8.091e+00      -1.497e+01       6.077e-01           0.009          -0.052          -0.999       4.944e-02         -0.1457
  73       7.909e+00      -1.497e+01       6.102e-01          -0.038          -0.071          -0.997       4.513e-02         -0.1523
  74       7.749e+00      -1.497e+01       6.202e-01          -0.092          -0.095          -0.991       3.832e-02         -0.1016
  75       7.621e+00      -1.497e+01       6.331e-01          -0.110          -0.104          -0.989       2.915e-02         -0.0658
  76       7.530e+00      -1.497e+01       6.464e-01          -0.199          -0.146          -0.969       1.853e-02         -0.1341
  77       7.484e+00      -1.497e+01       6.667e-01          -0.698          -0.376          -0.610       9.811e-03          0.4607
  78       7.484e+00      -1.497e+01       6.996e-01          -0.790          -0.372           0.487       1.304e-02          0.4223
  79       7.530e+00      -1.497e+01       7.404e-01          -0.502          -0.215           0.838       2.178e-02         -0.4026
  80       7.621e+00      -1.497e+01       7.764e-01          -0.258          -0.092           0.962       3.018e-02         -0.7400
  81       7.749e+00      -1.497e+01       7.969e-01          -0.075          -0.005           0.997       3.820e-02         -0.6628
  82       7.909e+00      -1.497e+01       8.018e-01           0.006           0.032           0.999       4.501e-02         -0.4599
  83       8.091e+00      -1.497e+01       7.963e-01           0.053           0.051           0.997       4.943e-02         -0.3196
  84       8.284e+00      -1.497e+01       7.830e-01           0.084           0.064           0.994       5.103e-02         -0.2186
  85       8.477e+00      -1.497e+01       7.645e-01           0.106           0.072           0.992       4.968e-02         -0.1405
  86       8.659e+00      -1.497e+01       7.436e-01           0.123           0.078           0.989       4.540e-02         -0.0754
  87       8.819e+00      -1.497e+01       7.229e-01           0.135           0.082           0.987       3.846e-02         -0.0137
  88       8.947e+00      -1.497e+01       7.047e-01           0.146           0.085           0.986       2.924e-02          0.0533
  89       9.038e+00      -1.497e+01       6.911e-01           0.154           0.088           0.984       1.828e-02          0.1192
  90       9.084e+00      -1.497e+01       6.827e-01           0.240           0.111           0.964       6.334e-03          0.1943
Strip 4
  91       8.997e+00      -1.466e+01       6.632e-01           0.199           0.011          -0.980       9.079e-03          0.1742
  92       8.948e+00      -1.466e+01       6.567e-01           0.111          -0.014          -0.994       2.631e-02          0.1229
  93       8.854e+00      -1.466e+01       6.466e-01           0.103          -0.017          -0.995       4.211e-02          0.0669
  94       8.720e+00      -1.466e+01       6.335e-01           0.092          -0.020          -0.996       5.543e-02          0.0105
  95       8.553e+00      -1.466e+01       6.193e-01           0.079          -0.024          -0.997       6.550e-02         -0.0369
  96       8.364e+00      -1.466e+01       6.059e-01           0.063          -0.030          -0.998       7.174e-02         -0.0789
  97       8.163e+00      -1.466e+01       5.956e-01           0.041          -0.039          -0.998       7.381e-02         -0.1170
  98       7.962e+00      -1.466e+01       5.906e-01           0.009          -0.052          -0.999       7.162e-02         -0.1453
  99       7.773e+00      -1.466e+01       5.932e-01          -0.038          -0.071          -0.997       6.538e-02         -0.1428
 100       7.606e+00      -1.466e+01       6.036e-01          -0.092          -0.095          -0.991       5.552e-02         -0.0807
 101       7.472e+00      -1.466e+01       6.171e-01          -0.110          -0.104          -0.989       4.223e-02         -0.0356
 102       7.378e+00      -1.466e+01       6.309e-01          -0.199          -0.146          -0.969       2.684e-02         -0.0854
 103       7.329e+00      -1.466e+01       6.520e-01          -0.697          -0.376          -0.610       1.422e-02          0.5041
 104       7.329e+00      -1.466e+01       6.864e-01          -0.791          -0.373           0.486       1.888e-02          0.4045
 105       7.378e+00      -1.466e+01       7.289e-01          -0.502          -0.215           0.838       3.153e-02         -0.4373
 106       7.472e+00      -1.466e+01       7.664e-01          -0.258          -0.092           0.962       4.371e-02         -0.7857
 107       7.606e+00      -1.466e+01       7.877e-01          -0.075          -0.005           0.997       5.533e-02         -0.7145
 108       7.773e+00      -1.466e+01       7.928e-01           0.006           0.032           0.999       6.520e-02         -0.5133
 109       7.962e+00      -1.466e+01       7.871e-01           0.053           0.051           0.997       7.160e-02         -0.3695
 110       8.163e+00      -1.466e+01       7.732e-01           0.084           0.064           0.994       7.393e-02         -0.2591
 111       8.364e+00      -1.466e+01       7.540e-01           0.106           0.072           0.992       7.196e-02         -0.1690
 112       8.553e+00      -1.466e+01       7.322e-01           0.123           0.078           0.989       6.578e-02         -0.0922
 113       8.720e+00      -1.466e+01       7.107e-01           0.135           0.082           0.987       5.572e-02         -0.0205
 114       8.854e+00      -1.466e+01       6.917e-01           0.146           0.085           0.986       4.236e-02          0.0543
 115       8.948e+00      -1.466e+01       6.775e-01           0.154           0.088           0.984       2.648e-02          0.1251
 116       8.997e+00      -1.466e+01       6.688e-01           0.240           0.111           0.964       9.177e-03          0.2017
Strip 5
 117       8.881e+00      -1.425e+01       6.444e-01           0.199           0.011          -0.980       1.218e-02          0.1750
 118       8.830e+00      -1.425e+01       6.375e-01           0.111          -0.014          -0.994       3.530e-02          0.1239
 119       8.731e+00      -1.425e+01       6.269e-01           0.103          -0.017          -0.995       5.649e-02          0.0685
 120       8.590e+00      -1.425e+01       6.132e-01           0.092          -0.020          -0.996       7.436e-02          0.0119
 121       8.414e+00      -1.425e+01       5.982e-01           0.079          -0.024          -0.997       8.787e-02         -0.0358
 122       8.215e+00      -1.425e+01       5.841e-01           0.063          -0.030          -0.998       9.625e-02         -0.0775
 123       8.003e+00      -1.425e+01       5.732e-01           0.041          -0.039          -0.998       9.902e-02         -0.1137
 124       7.791e+00      -1.425e+01       5.679e-01           0.009          -0.052          -0.999       9.608e-02         -0.1386
 125       7.592e+00      -1.425e+01       5.707e-01          -0.038          -0.071          -0.997       8.772e-02         -0.1319
 126       7.417e+00      -1.425e+01       5.817e-01          -0.092          -0.095          -0.991       7.450e-02         -0.0663
 127       7.275e+00      -1.425e+01       5.959e-01          -0.110          -0.104          -0.989       5.667e-02         -0.0177
 128       7.176e+00      -1.425e+01       6.104e-01          -0.199          -0.146          -0.969       3.602e-02         -0.0560
 129       7.125e+00      -1.425e+01       6.326e-01          -0.697          -0.376          -0.611       1.909e-02          0.5290
 130       7.125e+00      -1.425e+01       6.688e-01          -0.791          -0.373           0.485       2.531e-02          0.3852
 131       7.176e+00      -1.425e+01       7.136e-01          -0.502          -0.216           0.837       4.228e-02         -0.4655
 132       7.275e+00      -1.425e+01       7.531e-01          -0.258          -0.093           0.962       5.861e-02         -0.8153
 133       7.417e+00      -1.425e+01       7.755e-01          -0.075          -0.005           0.997       7.422e-02         -0.7431
 134       7.592e+00      -1.424e+01       7.810e-01           0.006           0.032           0.999       8.748e-02         -0.5412
 135       7.791e+00      -1.425e+01       7.749e-01           0.053           0.051           0.997       9.607e-02         -0.3975
 136       8.003e+00      -1.425e+01       7.603e-01           0.084           0.064           0.994       9.920e-02         -0.2852
 137       8.215e+00      -1.425e+01       7.400e-01           0.106           0.072           0.992       9.656e-02         -0.1909
 138       8.414e+00      -1.425e+01       7.171e-01           0.122           0.078           0.989       8.826e-02         -0.1087
 139       8.590e+00      -1.425e+01       6.944e-01           0.135           0.082           0.987       7.476e-02         -0.0315
 140       8.731e+00      -1.425e+01       6.744e-01           0.146           0.085           0.986       5.684e-02          0.0478
 141       8.830e+00      -1.425e+01       6.594e-01           0.154           0.088           0.984       3.554e-02          0.1222
 142       8.881e+00      -1.425e+01       6.503e-01           0.240           0.111           0.964       1.231e-02          0.2001
Strip 6
 143       8.738e+00      -1.374e+01       6.212e-01           0.199           0.011          -0.980       1.563e-02          0.1743
 144       8.684e+00      -1.374e+01       6.139e-01           0.112          -0.014          -0.994       4.530e-02          0.1237
 145       8.578e+00      -1.374e+01       6.026e-01           0.103          -0.017          -0.995       7.251e-02          0.0691
 146       8.428e+00      -1.374e+01       5.880e-01           0.092          -0.020          -0.996       9.544e-02          0.0131
 147       8.242e+00      -1.374e+01       5.721e-01           0.079          -0.024          -0.997       1.128e-01         -0.0339
 148       8.030e+00      -1.374e+01       5.571e-01           0.063          -0.030          -0.998       1.235e-01         -0.0745
 149       7.805e+00      -1.374e+01       5.455e-01           0.041          -0.039          -0.998       1.271e-01         -0.1093
 150       7.580e+00      -1.374e+01       5.399e-01           0.009          -0.052          -0.999       1.233e-01         -0.1325
 151       7.369e+00      -1.374e+01       5.428e-01          -0.038          -0.071          -0.997       1.126e-01         -0.1242
 152       7.182e+00      -1.374e+01       5.545e-01          -0.092          -0.095          -0.991       9.563e-02         -0.0576
 153       7.032e+00      -1.374e+01       5.696e-01          -0.110          -0.104          -0.989       7.275e-02         -0.0074
 154       6.927e+00      -1.374e+01       5.851e-01          -0.199          -0.146          -0.969       4.625e-02         -0.0391
 155       6.872e+00      -1.374e+01       6.087e-01          -0.696          -0.375          -0.612       2.452e-02          0.5427
 156       6.872e+00      -1.374e+01       6.471e-01          -0.792          -0.373           0.484       3.247e-02          0.3721
 157       6.927e+00      -1.374e+01       6.947e-01          -0.503          -0.216           0.837       5.423e-02         -0.4839
 158       7.032e+00      -1.374e+01       7.366e-01          -0.258          -0.093           0.962       7.520e-02         -0.8333
 159       7.182e+00      -1.374e+01       7.605e-01          -0.075          -0.005           0.997       9.526e-02         -0.7592
 160       7.369e+00      -1.374e+01       7.663e-01           0.006           0.032           0.999       1.123e-01         -0.5560
 161       7.580e+00      -1.374e+01       7.598e-01           0.053           0.051           0.997       1.233e-01         -0.4121
 162       7.805e+00      -1.374e+01       7.443e-01           0.084           0.064           0.994       1.273e-01         -0.2993
 163       8.030e+00      -1.374e+01       7.228e-01           0.106           0.072           0.992       1.240e-01         -0.2038
 164       8.242e+00      -1.374e+01       6.985e-01           0.122           0.078           0.989       1.133e-01         -0.1195
 165       8.428e+00      -1.374e+01       6.743e-01           0.135           0.082           0.987       9.597e-02         -0.0398
 166       8.578e+00      -1.374e+01       6.531e-01           0.146           0.085           0.986       7.297e-02          0.0420
 167       8.684e+00      -1.374e+01       6.372e-01           0.154           0.088           0.984       4.562e-02          0.1184
 168       8.738e+00      -1.374e+01       6.274e-01           0.240           0.111           0.964       1.581e-02          0.1972
Strip 7
 169       8.568e+00      -1.314e+01       5.937e-01           0.199           0.011          -0.980       1.948e-02          0.1738
 170       8.510e+00      -1.314e+01       5.859e-01           0.112          -0.014          -0.994       5.646e-02          0.1235
 171       8.398e+00      -1.314e+01       5.738e-01           0.103          -0.017          -0.995       9.037e-02          0.0695
 172       8.237e+00      -1.314e+01       5.582e-01           0.092          -0.020          -0.996       1.190e-01          0.0142
 173       8.038e+00      -1.314e+01       5.411e-01           0.079          -0.024          -0.997       1.406e-01         -0.0321
 174       7.811e+00      -1.314e+01       5.251e-01           0.063          -0.030          -0.998       1.540e-01         -0.0720
 175       7.571e+00      -1.314e+01       5.127e-01           0.041          -0.039          -0.998       1.584e-01         -0.1062
 176       7.330e+00      -1.314e+01       5.067e-01           0.009          -0.052          -0.999       1.537e-01         -0.1287
 177       7.104e+00      -1.314e+01       5.098e-01          -0.038          -0.071          -0.997       1.404e-01         -0.1198
 178       6.904e+00      -1.314e+01       5.224e-01          -0.092          -0.095          -0.991       1.192e-01         -0.0530
 179       6.744e+00      -1.314e+01       5.385e-01          -0.110          -0.104          -0.989       9.070e-02         -0.0023
 180       6.631e+00      -1.314e+01       5.550e-01          -0.199          -0.146          -0.969       5.768e-02         -0.0308
 181       6.573e+00      -1.314e+01       5.803e-01          -0.696          -0.375          -0.613       3.059e-02          0.5489
 182       6.573e+00      -1.314e+01       6.214e-01          -0.792          -0.373           0.483       4.045e-02          0.3659
 183       6.631e+00      -1.314e+01       6.723e-01          -0.503          -0.216           0.837       6.755e-02         -0.4935
 184       6.744e+00      -1.314e+01       7.172e-01          -0.258          -0.093           0.962       9.371e-02         -0.8430
 185       6.904e+00      -1.314e+01       7.427e-01          -0.075          -0.005           0.997       1.187e-01         -0.7677
 186       7.104e+00      -1.314e+01       7.489e-01           0.006           0.032           0.999       1.400e-01         -0.5637
 187       7.330e+00      -1.314e+01       7.420e-01           0.053           0.051           0.997       1.537e-01         -0.4195
 188       7.571e+00      -1.314e+01       7.254e-01           0.084           0.064           0.994       1.588e-01         -0.3066
 189       7.811e+00      -1.314e+01       7.023e-01           0.106           0.072           0.992       1.545e-01         -0.2105
 190       8.038e+00      -1.314e+01       6.763e-01           0.122           0.078           0.989       1.413e-01         -0.1254
 191       8.237e+00      -1.314e+01       6.505e-01           0.135           0.082           0.987       1.197e-01         -0.0446
 192       8.398e+00      -1.314e+01       6.278e-01           0.146           0.085           0.986       9.098e-02          0.0384
 193       8.510e+00      -1.314e+01       6.107e-01           0.154           0.088           0.984       5.688e-02          0.1158
 194       8.568e+00      -1.314e+01       6.003e-01           0.240           0.111           0.964       1.971e-02          0.1952
Strip 8
 195       8.373e+00      -1.245e+01       5.621e-01           0.199           0.011          -0.980       2.376e-02          0.1735
 196       8.311e+00      -1.245e+01       5.536e-01           0.112          -0.014          -0.994       6.888e-02          0.1234
 197       8.190e+00      -1.245e+01       5.407e-01           0.103          -0.017          -0.995       1.102e-01          0.0699
 198       8.017e+00      -1.245e+01       5.239e-01           0.092          -0.020          -0.996       1.451e-01          0.0150
 199       7.803e+00      -1.245e+01       5.056e-01           0.079          -0.024          -0.997       1.715e-01         -0.0310
 200       7.560e+00      -1.245e+01       4.884e-01           0.063          -0.030          -0.998       1.878e-01         -0.0706
 201       7.301e+00      -1.245e+01       4.750e-01           0.041          -0.039          -0.998       1.933e-01         -0.1045
 202       7.043e+00      -1.245e+01       4.686e-01           0.009          -0.052          -0.999       1.875e-01         -0.1268
 203       6.799e+00      -1.245e+01       4.719e-01          -0.038          -0.071          -0.997       1.713e-01         -0.1179
 204       6.585e+00      -1.245e+01       4.854e-01          -0.092          -0.095          -0.991       1.455e-01         -0.0512
 205       6.412e+00      -1.245e+01       5.027e-01          -0.110          -0.104          -0.989       1.107e-01         -0.0006
 206       6.291e+00      -1.245e+01       5.205e-01          -0.199          -0.146          -0.969       7.039e-02         -0.0284
 207       6.229e+00      -1.245e+01       5.477e-01          -0.695          -0.375          -0.613       3.735e-02          0.5501
 208       6.229e+00      -1.245e+01       5.918e-01          -0.793          -0.374           0.482       4.931e-02          0.3654
 209       6.291e+00      -1.245e+01       6.466e-01          -0.503          -0.216           0.837       8.236e-02         -0.4962
 210       6.412e+00      -1.245e+01       6.948e-01          -0.258          -0.093           0.962       1.143e-01         -0.8464
 211       6.585e+00      -1.244e+01       7.222e-01          -0.075          -0.005           0.997       1.448e-01         -0.7711
 212       6.799e+00      -1.244e+01       7.289e-01           0.006           0.032           0.999       1.708e-01         -0.5669
 213       7.043e+00      -1.244e+01       7.214e-01           0.053           0.051           0.997       1.876e-01         -0.4229
 214       7.301e+00      -1.245e+01       7.036e-01           0.084           0.064           0.994       1.937e-01         -0.3099
 215       7.560e+00      -1.245e+01       6.789e-01           0.106           0.072           0.992       1.886e-01         -0.2138
 216       7.803e+00      -1.245e+01       6.509e-01           0.122           0.078           0.989       1.724e-01         -0.1284
 217       8.017e+00      -1.245e+01       6.231e-01           0.135           0.082           0.987       1.460e-01         -0.0470
 218       8.190e+00      -1.245e+01       5.987e-01           0.146           0.085           0.986       1.110e-01          0.0364
 219       8.311e+00      -1.245e+01       5.804e-01           0.154           0.088           0.984       6.940e-02          0.1144
 220       8.373e+00      -1.245e+01       5.692e-01           0.240           0.111           0.964       2.406e-02          0.1940
Strip 9
 221       8.155e+00      -1.167e+01       5.266e-01           0.199           0.011          -0.980       2.848e-02          0.1734
 222       8.087e+00      -1.167e+01       5.175e-01           0.112          -0.014          -0.994       8.258e-02          0.1234
 223       7.957e+00      -1.167e+01       5.035e-01           0.103          -0.017          -0.995       1.322e-01          0.0700
 224       7.771e+00      -1.167e+01       4.854e-01           0.092          -0.020          -0.996       1.740e-01          0.0153
 225       7.540e+00      -1.167e+01       4.656e-01           0.079          -0.024          -0.997       2.056e-01         -0.0305
 226       7.277e+00      -1.167e+01       4.471e-01           0.063          -0.030          -0.998       2.252e-01         -0.0701
 227       6.999e+00      -1.167e+01       4.327e-01           0.041          -0.039          -0.998       2.317e-01         -0.1039
 228       6.720e+00      -1.167e+01       4.258e-01           0.009          -0.052          -0.999       2.249e-01         -0.1264
 229       6.458e+00      -1.167e+01       4.294e-01          -0.038          -0.071          -0.997       2.054e-01         -0.1178
 230       6.227e+00      -1.167e+01       4.439e-01          -0.092          -0.095          -0.991       1.745e-01         -0.0515
 231       6.040e+00      -1.167e+01       4.626e-01          -0.110          -0.104          -0.989       1.327e-01         -0.0013
 232       5.910e+00      -1.167e+01       4.817e-01          -0.199          -0.146          -0.969       8.443e-02         -0.0304
 233       5.843e+00      -1.167e+01       5.110e-01          -0.695          -0.375          -0.614       4.482e-02          0.5475
 234       5.843e+00      -1.167e+01       5.587e-01          -0.793          -0.374           0.481       5.909e-02          0.3693
 235       5.910e+00      -1.167e+01       6.177e-01          -0.504          -0.216           0.836       9.869e-02         -0.4937
 236       6.040e+00      -1.167e+01       6.697e-01          -0.259          -0.093           0.962       1.370e-01         -0.8455
 237       6.227e+00      -1.167e+01       6.993e-01          -0.075          -0.005           0.997       1.736e-01         -0.7710
 238       6.458e+00      -1.167e+01       7.064e-01           0.006           0.032           0.999       2.048e-01         -0.5674
 239       6.720e+00      -1.167e+01       6.984e-01           0.053           0.051           0.997       2.249e-01         -0.4237
 240       6.999e+00      -1.167e+01       6.792e-01           0.084           0.064           0.994       2.323e-01         -0.3111
 241       7.277e+00      -1.167e+01       6.525e-01           0.106           0.072           0.992       2.261e-01         -0.2150
 242       7.540e+00      -1.167e+01       6.223e-01           0.122           0.078           0.989       2.067e-01         -0.1296
 243       7.771e+00      -1.167e+01       5.924e-01           0.135           0.082           0.987       1.751e-01         -0.0482
 244       7.957e+00      -1.167e+01       5.660e-01           0.146           0.085           0.986       1.331e-01          0.0354
 245       8.087e+00      -1.167e+01       5.463e-01           0.154           0.088           0.984       8.323e-02          0.1136
 246       8.155e+00      -1.167e+01       5.343e-01           0.240           0.111           0.964       2.885e-02          0.1933
Strip 10
 247       7.913e+00      -1.082e+01       4.874e-01           0.200           0.011          -0.980       3.365e-02          0.1735
 248       7.841e+00      -1.082e+01       4.776e-01           0.112          -0.014          -0.994       9.756e-02          0.1234
 249       7.700e+00      -1.082e+01       4.625e-01           0.103          -0.017          -0.995       1.562e-01          0.0700
 250       7.499e+00      -1.082e+01       4.429e-01           0.092          -0.020          -0.996       2.055e-01          0.0153
 251       7.249e+00      -1.082e+01       4.216e-01           0.079          -0.024          -0.997       2.429e-01         -0.0306
 252       6.966e+00      -1.082e+01       4.016e-01           0.063          -0.030          -0.998       2.661e-01         -0.0702
 253       6.665e+00      -1.082e+01       3.860e-01           0.041          -0.039          -0.998       2.738e-01         -0.1043
 254       6.364e+00      -1.082e+01       3.786e-01           0.009          -0.052          -0.999       2.657e-01         -0.1270
 255       6.081e+00      -1.082e+01       3.824e-01          -0.038          -0.071          -0.997       2.427e-01         -0.1188
 256       5.831e+00      -1.082e+01       3.981e-01          -0.092          -0.095          -0.991       2.062e-01         -0.0530
 257       5.630e+00      -1.082e+01       4.183e-01          -0.110          -0.104          -0.989       1.568e-01         -0.0039
 258       5.489e+00      -1.082e+01       4.390e-01          -0.199          -0.146          -0.969       9.978e-02         -0.0357
 259       5.417e+00      -1.082e+01       4.706e-01          -0.694          -0.374          -0.615       5.299e-02          0.5423
 260       5.417e+00      -1.082e+01       5.221e-01          -0.794          -0.374           0.480       6.978e-02          0.3764
 261       5.489e+00      -1.081e+01       5.858e-01          -0.504          -0.217           0.836       1.165e-01         -0.4873
 262       5.630e+00      -1.081e+01       6.420e-01          -0.259          -0.093           0.962       1.618e-01         -0.8414
 263       5.831e+00      -1.081e+01       6.739e-01          -0.075          -0.005           0.997       2.051e-01         -0.7685
 264       6.081e+00      -1.081e+01       6.816e-01           0.006           0.032           0.999       2.419e-01         -0.5660
 265       6.364e+00      -1.081e+01       6.730e-01           0.053           0.051           0.997       2.658e-01         -0.4231
 266       6.665e+00      -1.081e+01       6.522e-01           0.084           0.064           0.994       2.745e-01         -0.3108
 267       6.966e+00      -1.081e+01       6.234e-01           0.106           0.072           0.992       2.672e-01         -0.2151
 268       7.249e+00      -1.081e+01       5.908e-01           0.122           0.078           0.989       2.442e-01         -0.1298
 269       7.499e+00      -1.081e+01       5.585e-01           0.135           0.082           0.987       2.069e-01         -0.0485
 270       7.700e+00      -1.082e+01       5.300e-01           0.146           0.085           0.986       1.573e-01          0.0351
 271       7.841e+00      -1.082e+01       5.087e-01           0.154           0.088           0.984       9.835e-02          0.1133
 272       7.913e+00      -1.082e+01       4.957e-01           0.240           0.111           0.965       3.409e-02          0.1930
Strip 11
 273       7.651e+00      -9.886e+00       4.449e-01           0.200           0.011          -0.980       3.922e-02          0.1735
 274       7.573e+00      -9.886e+00       4.343e-01           0.112          -0.014          -0.994       1.137e-01          0.1233
 275       7.420e+00      -9.886e+00       4.180e-01           0.103          -0.017          -0.995       1.820e-01          0.0699
 276       7.203e+00      -9.887e+00       3.968e-01           0.092          -0.020          -0.996       2.396e-01          0.0151
 277       6.934e+00      -9.887e+00       3.738e-01           0.079          -0.024          -0.997       2.832e-01         -0.0310
 278       6.628e+00      -9.887e+00       3.521e-01           0.063          -0.030          -0.998       3.102e-01         -0.0708
 279       6.303e+00      -9.888e+00       3.353e-01           0.041          -0.039          -0.998       3.192e-01         -0.1052
 280       5.977e+00      -9.888e+00       3.273e-01           0.009          -0.052          -0.999       3.098e-01         -0.1284
 281       5.671e+00      -9.888e+00       3.314e-01          -0.038          -0.071          -0.997       2.829e-01         -0.1207
 282       5.402e+00      -9.888e+00       3.484e-01          -0.092          -0.095          -0.991       2.404e-01         -0.0556
 283       5.185e+00      -9.887e+00       3.702e-01          -0.110          -0.104          -0.989       1.829e-01         -0.0077
 284       5.032e+00      -9.887e+00       3.926e-01          -0.199          -0.146          -0.969       1.164e-01         -0.0434
 285       4.954e+00      -9.886e+00       4.267e-01          -0.694          -0.374          -0.615       6.182e-02          0.5349
 286       4.954e+00      -9.885e+00       4.823e-01          -0.794          -0.375           0.479       8.131e-02          0.3860
 287       5.032e+00      -9.884e+00       5.512e-01          -0.504          -0.217           0.836       1.358e-01         -0.4779
 288       5.185e+00      -9.883e+00       6.119e-01          -0.259          -0.093           0.961       1.885e-01         -0.8348
 289       5.402e+00      -9.883e+00       6.464e-01          -0.075          -0.005           0.997       2.391e-01         -0.7641
 290       5.671e+00      -9.882e+00       6.547e-01           0.006           0.032           0.999       2.821e-01         -0.5632
 291       5.977e+00      -9.883e+00       6.454e-01           0.053           0.051           0.997       3.099e-01         -0.4213
 292       6.303e+00      -9.883e+00       6.230e-01           0.084           0.064           0.994       3.200e-01         -0.3097
 293       6.628e+00      -9.884e+00       5.918e-01           0.106           0.072           0.992       3.116e-01         -0.2144
 294       6.934e+00      -9.884e+00       5.566e-01           0.122           0.078           0.989       2.848e-01         -0.1295
 295       7.203e+00      -9.885e+00       5.217e-01           0.135           0.082           0.987       2.412e-01         -0.0484
 296       7.420e+00      -9.885e+00       4.909e-01           0.146           0.085           0.986       1.834e-01          0.0351
 297       7.573e+00      -9.886e+00       4.679e-01           0.154           0.088           0.984       1.147e-01          0.1132
 298       7.651e+00      -9.886e+00       4.538e-01           0.240           0.111           0.965       3.976e-02          0.1928
Strip 12
 299       7.370e+00      -8.888e+00       3.992e-01           0.200           0.011          -0.980       4.516e-02          0.1735
 300       7.285e+00      -8.888e+00       3.878e-01           0.112          -0.014          -0.994       1.310e-01          0.1232
 301       7.121e+00      -8.889e+00       3.702e-01           0.103          -0.017          -0.995       2.096e-01          0.0696
 302       6.886e+00      -8.889e+00       3.473e-01           0.092          -0.020          -0.996       2.759e-01          0.0146
 303       6.595e+00      -8.889e+00       3.225e-01           0.079          -0.024          -0.997       3.261e-01         -0.0317
 304       6.265e+00      -8.890e+00       2.991e-01           0.063          -0.030          -0.998       3.572e-01         -0.0718
 305       5.914e+00      -8.890e+00       2.809e-01           0.041          -0.039          -0.998       3.675e-01         -0.1066
 306       5.563e+00      -8.890e+00       2.722e-01           0.009          -0.052          -0.999       3.567e-01         -0.1303
 307       5.232e+00      -8.890e+00       2.767e-01          -0.038          -0.071          -0.997       3.258e-01         -0.1233
 308       4.941e+00      -8.890e+00       2.951e-01          -0.092          -0.095          -0.991       2.769e-01         -0.0590
 309       4.707e+00      -8.889e+00       3.186e-01          -0.110          -0.104          -0.989       2.107e-01         -0.0126
 310       4.542e+00      -8.889e+00       3.427e-01          -0.199          -0.146          -0.969       1.340e-01         -0.0532
 311       4.458e+00      -8.889e+00       3.796e-01          -0.693          -0.374          -0.616       7.124e-02          0.5257
 312       4.458e+00      -8.888e+00       4.397e-01          -0.794          -0.375           0.478       9.359e-02          0.3976
 313       4.542e+00      -8.887e+00       5.140e-01          -0.505          -0.217           0.836       1.563e-01         -0.4659
 314       4.707e+00      -8.886e+00       5.796e-01          -0.259          -0.093           0.961       2.170e-01         -0.8261
 315       4.941e+00      -8.885e+00       6.169e-01          -0.075          -0.005           0.997       2.754e-01         -0.7583
 316       5.232e+00      -8.885e+00       6.259e-01           0.006           0.032           0.999       3.248e-01         -0.5595
 317       5.563e+00      -8.885e+00       6.158e-01           0.053           0.051           0.997       3.569e-01         -0.4187
 318       5.914e+00      -8.886e+00       5.916e-01           0.084           0.064           0.994       3.686e-01         -0.3080
 319       6.265e+00      -8.886e+00       5.579e-01           0.106           0.072           0.992       3.588e-01         -0.2133
 320       6.595e+00      -8.887e+00       5.199e-01           0.122           0.078           0.989       3.280e-01         -0.1287
 321       6.886e+00      -8.887e+00       4.822e-01           0.135           0.082           0.987       2.779e-01         -0.0479
 322       7.121e+00      -8.888e+00       4.490e-01           0.146           0.085           0.986       2.113e-01          0.0353
 323       7.285e+00      -8.888e+00       4.241e-01           0.154           0.088           0.984       1.321e-01          0.1132
 324       7.370e+00      -8.888e+00       4.089e-01           0.240           0.111           0.965       4.579e-02          0.1927
Strip 13
 325       7.071e+00      -7.830e+00       3.508e-01           0.200           0.011          -0.980       5.140e-02          0.1734
 326       6.980e+00      -7.830e+00       3.385e-01           0.112          -0.014          -0.994       1.491e-01          0.1230
 327       6.803e+00      -7.830e+00       3.195e-01           0.103          -0.017          -0.995       2.386e-01          0.0693
 328       6.550e+00      -7.831e+00       2.949e-01           0.092          -0.020          -0.996       3.140e-01          0.0140
 329       6.236e+00      -7.831e+00       2.680e-01           0.079          -0.024          -0.997       3.711e-01         -0.0325
 330       5.880e+00      -7.831e+00       2.428e-01           0.063          -0.030          -0.998       4.065e-01         -0.0731
 331       5.501e+00      -7.831e+00       2.233e-01           0.041          -0.039          -0.998       4.183e-01         -0.1083
 332       5.123e+00      -7.831e+00       2.139e-01           0.009          -0.052          -0.999       4.060e-01         -0.1326
 333       4.766e+00      -7.831e+00       2.187e-01          -0.038          -0.071          -0.997       3.709e-01         -0.1264
 334       4.452e+00      -7.831e+00       2.385e-01          -0.092          -0.095          -0.991       3.152e-01         -0.0630
 335       4.200e+00      -7.831e+00       2.639e-01          -0.110          -0.104          -0.989       2.398e-01         -0.0185
 336       4.022e+00      -7.831e+00       2.899e-01          -0.199          -0.146          -0.969       1.526e-01         -0.0650
 337       3.931e+00      -7.830e+00       3.297e-01          -0.693          -0.374          -0.616       8.113e-02          0.5147
 338       3.931e+00      -7.829e+00       3.945e-01          -0.795          -0.375           0.477       1.065e-01          0.4109
 339       4.022e+00      -7.829e+00       4.747e-01          -0.505          -0.217           0.835       1.778e-01         -0.4517
 340       4.200e+00      -7.828e+00       5.453e-01          -0.259          -0.093           0.961       2.470e-01         -0.8156
 341       4.452e+00      -7.827e+00       5.855e-01          -0.075          -0.005           0.997       3.134e-01         -0.7511
 342       4.766e+00      -7.827e+00       5.953e-01           0.006           0.032           0.999       3.697e-01         -0.5548
 343       5.123e+00      -7.827e+00       5.844e-01           0.053           0.051           0.997       4.062e-01         -0.4155
 344       5.501e+00      -7.828e+00       5.583e-01           0.084           0.064           0.994       4.196e-01         -0.3058
 345       5.880e+00      -7.828e+00       5.220e-01           0.106           0.072           0.992       4.085e-01         -0.2117
 346       6.236e+00      -7.828e+00       4.810e-01           0.122           0.078           0.989       3.734e-01         -0.1277
 347       6.550e+00      -7.829e+00       4.403e-01           0.135           0.082           0.987       3.163e-01         -0.0473
 348       6.803e+00      -7.829e+00       4.045e-01           0.146           0.085           0.986       2.405e-01          0.0356
 349       6.980e+00      -7.830e+00       3.777e-01           0.154           0.088           0.984       1.504e-01          0.1133
 350       7.071e+00      -7.830e+00       3.613e-01           0.239           0.111           0.965       5.213e-02          0.1926
Strip 14
 351       6.758e+00      -6.718e+00       3.000e-01           0.200           0.011          -0.980       5.785e-02          0.1733
 352       6.660e+00      -6.718e+00       2.867e-01           0.112          -0.014          -0.994       1.678e-01          0.1227
 353       6.469e+00      -6.718e+00       2.663e-01           0.103          -0.017          -0.995       2.685e-01          0.0688
 354       6.197e+00      -6.719e+00       2.397e-01           0.092          -0.020          -0.996       3.535e-01          0.0132
 355       5.859e+00      -6.719e+00       2.109e-01           0.079          -0.024          -0.997       4.177e-01         -0.0337
 356       5.475e+00      -6.719e+00       1.837e-01           0.063          -0.030          -0.998       4.576e-01         -0.0746
 357       5.068e+00      -6.719e+00       1.626e-01           0.041          -0.039          -0.998       4.709e-01         -0.1103
 358       4.661e+00      -6.719e+00       1.525e-01           0.009          -0.052          -0.999       4.570e-01         -0.1354
 359       4.277e+00      -6.719e+00       1.578e-01          -0.038          -0.071          -0.997       4.175e-01         -0.1300
 360       3.939e+00      -6.719e+00       1.790e-01          -0.092          -0.095          -0.991       3.548e-01         -0.0677
 361       3.667e+00      -6.719e+00       2.064e-01          -0.110          -0.104          -0.989       2.700e-01         -0.0252
 362       3.476e+00      -6.719e+00       2.344e-01          -0.199          -0.146          -0.969       1.718e-01         -0.0785
 363       3.378e+00      -6.718e+00       2.772e-01          -0.693          -0.374          -0.617       9.137e-02          0.5018
 364       3.378e+00      -6.718e+00       3.470e-01          -0.795          -0.375           0.476       1.198e-01          0.4257
 365       3.476e+00      -6.717e+00       4.333e-01          -0.505          -0.217           0.835       2.000e-01         -0.4351
 366       3.667e+00      -6.716e+00       5.094e-01          -0.259          -0.093           0.961       2.779e-01         -0.8031
 367       3.939e+00      -6.716e+00       5.526e-01          -0.075          -0.005           0.997       3.528e-01         -0.7427
 368       4.277e+00      -6.716e+00       5.631e-01           0.006           0.032           0.999       4.162e-01         -0.5493
 369       4.661e+00      -6.716e+00       5.514e-01           0.053           0.051           0.997       4.573e-01         -0.4118
 370       5.068e+00      -6.716e+00       5.233e-01           0.084           0.064           0.994       4.724e-01         -0.3031
 371       5.475e+00      -6.716e+00       4.842e-01           0.106           0.072           0.992       4.599e-01         -0.2099
 372       5.859e+00      -6.717e+00       4.401e-01           0.122           0.078           0.989       4.204e-01         -0.1266
 373       6.197e+00      -6.717e+00       3.963e-01           0.135           0.082           0.987       3.561e-01         -0.0466
 374       6.469e+00      -6.718e+00       3.577e-01           0.146           0.085           0.986       2.707e-01          0.0359
 375       6.660e+00      -6.718e+00       3.289e-01           0.154           0.088           0.984       1.693e-01          0.1133
 376       6.758e+00      -6.718e+00       3.112e-01           0.239           0.111           0.965       5.869e-02          0.1924
Strip 15
 377       6.432e+00      -5.560e+00       2.470e-01           0.200           0.011          -0.980       6.441e-02          0.1731
 378       6.326e+00      -5.560e+00       2.327e-01           0.112          -0.014          -0.994       1.868e-01          0.1224
 379       6.121e+00      -5.561e+00       2.108e-01           0.103          -0.017          -0.995       2.990e-01          0.0681
 380       5.829e+00      -5.561e+00       1.823e-01           0.092          -0.020          -0.996       3.936e-01          0.0123
 381       5.466e+00      -5.561e+00       1.513e-01           0.079          -0.024          -0.997       4.651e-01         -0.0350
 382       5.054e+00      -5.561e+00       1.221e-01           0.063          -0.030          -0.998       5.095e-01         -0.0763
 383       4.617e+00      -5.561e+00       9.954e-02           0.041          -0.039          -0.998       5.243e-01         -0.1127
 384       4.179e+00      -5.561e+00       8.867e-02           0.009          -0.052          -0.999       5.089e-01         -0.1385
 385       3.767e+00      -5.561e+00       9.430e-02          -0.038          -0.071          -0.997       4.649e-01         -0.1341
 386       3.405e+00      -5.561e+00       1.172e-01          -0.092          -0.095          -0.991       3.951e-01         -0.0729
 387       3.112e+00      -5.561e+00       1.465e-01          -0.110          -0.104          -0.989       3.007e-01         -0.0329
 388       2.907e+00      -5.561e+00       1.766e-01          -0.199          -0.146          -0.969       1.914e-01         -0.0942
 389       2.802e+00      -5.560e+00       2.226e-01          -0.692          -0.374          -0.617       1.018e-01          0.4868
 390       2.802e+00      -5.560e+00       2.975e-01          -0.795          -0.375           0.476       1.334e-01          0.4424
 391       2.907e+00      -5.559e+00       3.902e-01          -0.505          -0.217           0.835       2.226e-01         -0.4158
 392       3.112e+00      -5.559e+00       4.719e-01          -0.259          -0.093           0.961       3.094e-01         -0.7885
 393       3.405e+00      -5.558e+00       5.184e-01          -0.075          -0.005           0.997       3.928e-01         -0.7327
 394       3.767e+00      -5.558e+00       5.296e-01           0.006           0.032           0.999       4.635e-01         -0.5429
 395       4.179e+00      -5.558e+00       5.170e-01           0.053           0.051           0.997       5.093e-01         -0.4074
 396       4.617e+00      -5.559e+00       4.868e-01           0.084           0.064           0.994       5.260e-01         -0.3002
 397       5.054e+00      -5.559e+00       4.449e-01           0.106           0.072           0.992       5.121e-01         -0.2080
 398       5.466e+00      -5.559e+00       3.975e-01           0.122           0.078           0.989       4.681e-01         -0.1253
 399       5.829e+00      -5.560e+00       3.505e-01           0.135           0.082           0.987       3.965e-01         -0.0460
 400       6.121e+00      -5.560e+00       3.091e-01           0.146           0.085           0.986       3.015e-01          0.0362
 401       6.326e+00      -5.560e+00       2.781e-01           0.154           0.088           0.984       1.885e-01          0.1133
 402       6.432e+00      -5.560e+00       2.591e-01           0.239           0.111           0.965       6.537e-02          0.1921
Strip 16
 403       6.095e+00      -4.365e+00       1.924e-01           0.200           0.011          -0.980       7.096e-02          0.1726
 404       5.982e+00      -4.365e+00       1.770e-01           0.112          -0.014          -0.994       2.058e-01          0.1217
 405       5.762e+00      -4.365e+00       1.536e-01           0.103          -0.017          -0.995       3.295e-01          0.0672
 406       5.449e+00      -4.365e+00       1.230e-01           0.092          -0.020          -0.996       4.337e-01          0.0110
 407       5.061e+00      -4.365e+00       8.983e-02           0.079          -0.024          -0.997       5.125e-01         -0.0366
 408       4.619e+00      -4.365e+00       5.857e-02           0.063          -0.030          -0.998       5.614e-01         -0.0784
 409       4.151e+00      -4.365e+00       3.437e-02           0.041          -0.039          -0.998       5.777e-01         -0.1153
 410       3.682e+00      -4.365e+00       2.272e-02           0.009          -0.052          -0.999       5.608e-01         -0.1418
 411       3.241e+00      -4.365e+00       2.875e-02          -0.038          -0.071          -0.997       5.123e-01         -0.1385
 412       2.852e+00      -4.365e+00       5.323e-02          -0.092          -0.095          -0.991       4.354e-01         -0.0787
 413       2.539e+00      -4.365e+00       8.466e-02          -0.110          -0.104          -0.989       3.313e-01         -0.0414
 414       2.320e+00      -4.365e+00       1.169e-01          -0.199          -0.146          -0.969       2.109e-01         -0.1122
 415       2.207e+00      -4.365e+00       1.662e-01          -0.692          -0.373          -0.618       1.122e-01          0.4689
 416       2.207e+00      -4.364e+00       2.464e-01          -0.796          -0.376           0.475       1.469e-01          0.4614
 417       2.320e+00      -4.364e+00       3.457e-01          -0.506          -0.217           0.835       2.452e-01         -0.3927
 418       2.539e+00      -4.363e+00       4.332e-01          -0.259          -0.093           0.961       3.409e-01         -0.7706
 419       2.852e+00      -4.363e+00       4.830e-01          -0.075          -0.005           0.997       4.328e-01         -0.7207
 420       3.241e+00      -4.363e+00       4.950e-01           0.006           0.032           0.999       5.107e-01         -0.5353
 421       3.682e+00      -4.363e+00       4.816e-01           0.053           0.051           0.997       5.612e-01         -0.4026
 422       4.151e+00      -4.363e+00       4.492e-01           0.084           0.064           0.994       5.797e-01         -0.2972
 423       4.619e+00      -4.363e+00       4.043e-01           0.106           0.072           0.992       5.643e-01         -0.2062
 424       5.061e+00      -4.364e+00       3.535e-01           0.122           0.078           0.989       5.159e-01         -0.1244
 425       5.449e+00      -4.364e+00       3.031e-01           0.135           0.082           0.987       4.370e-01         -0.0456
 426       5.762e+00      -4.364e+00       2.588e-01           0.146           0.085           0.986       3.323e-01          0.0361
 427       5.982e+00      -4.364e+00       2.256e-01           0.154           0.088           0.984       2.077e-01          0.1130
 428       6.095e+00      -4.365e+00       2.053e-01           0.239           0.111           0.965       7.203e-02          0.1916
Strip 17
 429       5.749e+00      -3.139e+00       1.363e-01           0.200           0.011          -0.980       7.738e-02          0.1717
 430       5.629e+00      -3.139e+00       1.200e-01           0.112          -0.014          -0.994       2.245e-01          0.1205
 431       5.394e+00      -3.139e+00       9.487e-02           0.103          -0.017          -0.995       3.593e-01          0.0657
 432       5.060e+00      -3.139e+00       6.228e-02           0.092          -0.020          -0.996       4.729e-01          0.0092
 433       4.645e+00      -3.139e+00       2.681e-02           0.079          -0.024          -0.997       5.589e-01         -0.0388
 434       4.174e+00      -3.140e+00      -6.584e-03           0.063          -0.030          -0.998       6.123e-01         -0.0809
 435       3.673e+00      -3.140e+00      -3.244e-02           0.041          -0.039          -0.998       6.300e-01         -0.1182
 436       3.173e+00      -3.140e+00      -4.487e-02           0.009          -0.052          -0.999       6.116e-01         -0.1453
 437       2.701e+00      -3.140e+00      -3.843e-02          -0.038          -0.071          -0.997       5.588e-01         -0.1428
 438       2.287e+00      -3.140e+00      -1.229e-02          -0.092          -0.095          -0.991       4.749e-01         -0.0843
 439       1.952e+00      -3.139e+00       2.128e-02          -0.110          -0.104          -0.989       3.614e-01         -0.0505
 440       1.718e+00      -3.139e+00       5.572e-02          -0.199          -0.146          -0.969       2.301e-01         -0.1328
 441       1.597e+00      -3.139e+00       1.084e-01          -0.692          -0.373          -0.618       1.224e-01          0.4470
 442       1.597e+00      -3.139e+00       1.940e-01          -0.796          -0.376           0.475       1.602e-01          0.4843
 443       1.718e+00      -3.138e+00       3.001e-01          -0.506          -0.217           0.835       2.673e-01         -0.3629
 444       1.952e+00      -3.138e+00       3.936e-01          -0.259          -0.093           0.961       3.717e-01         -0.7469
 445       2.287e+00      -3.138e+00       4.467e-01          -0.075          -0.005           0.997       4.720e-01         -0.7048
 446       2.701e+00      -3.138e+00       4.596e-01           0.006           0.032           0.999       5.569e-01         -0.5259
 447       3.173e+00      -3.138e+00       4.452e-01           0.053           0.051           0.997       6.120e-01         -0.3974
 448       3.673e+00      -3.138e+00       4.106e-01           0.084           0.064           0.994       6.322e-01         -0.2946
 449       4.174e+00      -3.138e+00       3.627e-01           0.106           0.072           0.992       6.155e-01         -0.2053
 450       4.645e+00      -3.138e+00       3.084e-01           0.122           0.078           0.989       5.626e-01         -0.1245
 451       5.060e+00      -3.139e+00       2.546e-01           0.135           0.082           0.987       4.766e-01         -0.0462
 452       5.394e+00      -3.139e+00       2.073e-01           0.146           0.085           0.986       3.624e-01          0.0353
 453       5.629e+00      -3.139e+00       1.718e-01           0.154           0.088           0.984       2.266e-01          0.1120
 454       5.749e+00      -3.139e+00       1.501e-01           0.239           0.111           0.965       7.857e-02          0.1905
Strip 18
 455       5.398e+00      -1.892e+00       7.927e-02           0.200           0.011          -0.980       8.353e-02          0.1695
 456       5.269e+00      -1.892e+00       6.186e-02           0.112          -0.014          -0.994       2.423e-01          0.1181
 457       5.020e+00      -1.892e+00       3.515e-02           0.103          -0.017          -0.995       3.878e-01          0.0627
 458       4.664e+00      -1.892e+00       4.508e-04           0.092          -0.020          -0.996       5.105e-01          0.0057
 459       4.222e+00      -1.892e+00      -3.732e-02           0.079          -0.024          -0.997       6.033e-01         -0.0425
 460       3.720e+00      -1.892e+00      -7.288e-02           0.063          -0.030          -0.998       6.609e-01         -0.0845
 461       3.187e+00      -1.892e+00      -1.004e-01           0.041          -0.039          -0.998       6.801e-01         -0.1211
 462       2.654e+00      -1.892e+00      -1.136e-01           0.009          -0.052          -0.999       6.602e-01         -0.1475
 463       2.153e+00      -1.892e+00      -1.068e-01          -0.038          -0.071          -0.997       6.032e-01         -0.1449
 464       1.711e+00      -1.892e+00      -7.895e-02          -0.092          -0.095          -0.991       5.127e-01         -0.0876
 465       1.355e+00      -1.892e+00      -4.320e-02          -0.110          -0.104          -0.989       3.901e-01         -0.0577
 466       1.105e+00      -1.892e+00      -6.537e-03          -0.199          -0.146          -0.969       2.484e-01         -0.1550
 467       9.769e-01      -1.892e+00       4.951e-02          -0.692          -0.373          -0.618       1.322e-01          0.4198
 468       9.769e-01      -1.892e+00       1.407e-01          -0.796          -0.376           0.474       1.729e-01          0.5163
 469       1.105e+00      -1.892e+00       2.537e-01          -0.506          -0.217           0.835       2.885e-01         -0.3176
 470       1.355e+00      -1.892e+00       3.532e-01          -0.259          -0.093           0.961       4.012e-01         -0.7089
 471       1.711e+00      -1.891e+00       4.098e-01          -0.075          -0.005           0.997       5.095e-01         -0.6796
 472       2.153e+00      -1.891e+00       4.235e-01           0.006           0.032           0.999       6.013e-01         -0.5125
 473       2.654e+00      -1.891e+00       4.082e-01           0.053           0.051           0.997       6.607e-01         -0.3919
 474       3.187e+00      -1.891e+00       3.714e-01           0.084           0.064           0.994       6.825e-01         -0.2943
 475       3.720e+00      -1.892e+00       3.203e-01           0.106           0.072           0.992       6.645e-01         -0.2080
 476       4.222e+00      -1.892e+00       2.626e-01           0.122           0.078           0.989       6.074e-01         -0.1282
 477       4.664e+00      -1.892e+00       2.053e-01           0.135           0.082           0.987       5.146e-01         -0.0499
 478       5.020e+00      -1.892e+00       1.548e-01           0.146           0.085           0.986       3.912e-01          0.0320
 479       5.269e+00      -1.892e+00       1.171e-01           0.154           0.088           0.984       2.446e-01          0.1093
 480       5.398e+00      -1.892e+00       9.400e-02           0.239           0.111           0.965       8.483e-02          0.1881
Strip 19
 481       5.043e+00      -6.321e-01       2.165e-02           0.200           0.011          -0.980       8.927e-02          0.1643
 482       4.906e+00      -6.321e-01       3.170e-03           0.112          -0.014          -0.994       2.590e-01          0.1110
 483       4.641e+00      -6.321e-01      -2.518e-02           0.103          -0.017          -0.995       4.145e-01          0.0527
 484       4.264e+00      -6.322e-01      -6.202e-02           0.092          -0.020          -0.996       5.456e-01         -0.0067
 485       3.795e+00      -6.322e-01      -1.021e-01           0.079          -0.024          -0.997       6.448e-01         -0.0547
 486       3.262e+00      -6.322e-01      -1.399e-01           0.063          -0.030          -0.998       7.064e-01         -0.0937
 487       2.696e+00      -6.322e-01      -1.691e-01           0.041          -0.039          -0.998       7.269e-01         -0.1252
 488       2.131e+00      -6.322e-01      -1.831e-01           0.009          -0.052          -0.999       7.056e-01         -0.1447
 489       1.598e+00      -6.322e-01      -1.759e-01          -0.038          -0.071          -0.997       6.447e-01         -0.1348
 490       1.129e+00      -6.322e-01      -1.463e-01          -0.092          -0.095          -0.991       5.480e-01         -0.0724
 491       7.512e-01      -6.322e-01      -1.084e-01          -0.110          -0.104          -0.989       4.170e-01         -0.0424
 492       4.864e-01      -6.322e-01      -6.944e-02          -0.199          -0.146          -0.969       2.655e-01         -0.1558
 493       3.501e-01      -6.321e-01      -9.938e-03          -0.691          -0.373          -0.619       1.413e-01          0.3848
 494       3.501e-01      -6.321e-01       8.688e-02          -0.796          -0.376           0.474       1.847e-01          0.5716
 495       4.864e-01      -6.320e-01       2.068e-01          -0.506          -0.218           0.835       3.083e-01         -0.2134
 496       7.512e-01      -6.319e-01       3.124e-01          -0.259          -0.093           0.961       4.287e-01         -0.6096
 497       1.129e+00      -6.319e-01       3.725e-01          -0.075          -0.005           0.997       5.445e-01         -0.6147
 498       1.598e+00      -6.319e-01       3.871e-01           0.006           0.032           0.999       6.426e-01         -0.4870
 499       2.131e+00      -6.319e-01       3.708e-01           0.053           0.051           0.997       7.062e-01         -0.3888
 500       2.696e+00      -6.319e-01       3.318e-01           0.084           0.064           0.994       7.295e-01         -0.3041
 501       3.262e+00      -6.320e-01       2.775e-01           0.106           0.072           0.992       7.102e-01         -0.2242
 502       3.795e+00      -6.320e-01       2.162e-01           0.122           0.078           0.989       6.492e-01         -0.1464
 503       4.264e+00      -6.320e-01       1.554e-01           0.135           0.082           0.987       5.500e-01         -0.0664
 504       4.641e+00      -6.321e-01       1.019e-01           0.146           0.085           0.986       4.182e-01          0.0197
 505       4.906e+00      -6.321e-01       6.180e-02           0.154           0.088           0.984       2.614e-01          0.1011
 506       5.043e+00      -6.321e-01       3.729e-02           0.239           0.111           0.965       9.067e-02          0.1823
Strip 20
 507       5.043e+00       6.321e-01       2.165e-02           0.200          -0.011          -0.980       8.927e-02          0.1643
 508       4.906e+00       6.321e-01       3.170e-03           0.112           0.014          -0.994       2.590e-01          0.1110
 509       4.641e+00       6.321e-01      -2.518e-02           0.103           0.017          -0.995       4.145e-01          0.0527
 510       4.264e+00       6.322e-01      -6.202e-02           0.092           0.020          -0.996       5.456e-01         -0.0067
 511       3.795e+00       6.322e-01      -1.021e-01           0.079           0.024          -0.997       6.448e-01         -0.0547
 512       3.262e+00       6.322e-01      -1.399e-01           0.063           0.030          -0.998       7.064e-01         -0.0937
 513       2.696e+00       6.322e-01      -1.691e-01           0.041           0.039          -0.998       7.269e-01         -0.1252
 514       2.131e+00       6.322e-01      -1.831e-01           0.009           0.052          -0.999       7.056e-01         -0.1447
 515       1.598e+00       6.322e-01      -1.759e-01          -0.038           0.071          -0.997       6.447e-01         -0.1348
 516       1.129e+00       6.322e-01      -1.463e-01          -0.092           0.095          -0.991       5.480e-01         -0.0724
 517       7.512e-01       6.322e-01      -1.084e-01          -0.110           0.104          -0.989       4.170e-01         -0.0424
 518       4.864e-01       6.322e-01      -6.944e-02          -0.199           0.146          -0.969       2.655e-01         -0.1558
 519       3.501e-01       6.321e-01      -9.938e-03          -0.691           0.373          -0.619       1.413e-01          0.3848
 520       3.501e-01       6.321e-01       8.688e-02          -0.796           0.376           0.474       1.847e-01          0.5716
 521       4.864e-01       6.320e-01       2.068e-01          -0.506           0.218           0.835       3.083e-01         -0.2134
 522       7.512e-01       6.319e-01       3.124e-01          -0.259           0.093           0.961       4.287e-01         -0.6096
 523       1.129e+00       6.319e-01       3.725e-01          -0.075           0.005           0.997       5.445e-01         -0.6147
 524       1.598e+00       6.319e-01       3.871e-01           0.006          -0.032           0.999       6.426e-01         -0.4870
 525       2.131e+00       6.319e-01       3.708e-01           0.053          -0.051           0.997       7.062e-01         -0.3888
 526       2.696e+00       6.319e-01       3.318e-01           0.084          -0.064           0.994       7.295e-01         -0.3041
 527       3.262e+00       6.320e-01       2.775e-01           0.106          -0.072           0.992       7.102e-01         -0.2242
 528       3.795e+00       6.320e-01       2.162e-01           0.122          -0.078           0.989       6.492e-01         -0.1464
 529       4.264e+00       6.320e-01       1.554e-01           0.135          -0.082           0.987       5.500e-01         -0.0664
 530       4.641e+00       6.321e-01       1.019e-01           0.146          -0.085           0.986       4.182e-01          0.0197
 531       4.906e+00       6.321e-01       6.180e-02           0.154          -0.088           0.984       2.614e-01          0.1011
 532       5.043e+00       6.321e-01       3.729e-02           0.239          -0.111           0.965       9.067e-02          0.1823
Strip 21
 533       5.398e+00       1.892e+00       7.927e-02           0.200          -0.011          -0.980       8.353e-02          0.1695
 534       5.269e+00       1.892e+00       6.186e-02           0.112           0.014          -0.994       2.423e-01          0.1181
 535       5.020e+00       1.892e+00       3.515e-02           0.103           0.017          -0.995       3.878e-01          0.0627
 536       4.664e+00       1.892e+00       4.508e-04           0.092           0.020          -0.996       5.105e-01          0.0057
 537       4.222e+00       1.892e+00      -3.732e-02           0.079           0.024          -0.997       6.033e-01         -0.0425
 538       3.720e+00       1.892e+00      -7.288e-02           0.063           0.030          -0.998       6.609e-01         -0.0845
 539       3.187e+00       1.892e+00      -1.004e-01           0.041           0.039          -0.998       6.801e-01         -0.1211
 540       2.654e+00       1.892e+00      -1.136e-01           0.009           0.052          -0.999       6.602e-01         -0.1475
 541       2.153e+00       1.892e+00      -1.068e-01          -0.038           0.071          -0.997       6.032e-01         -0.1449
 542       1.711e+00       1.892e+00      -7.895e-02          -0.092           0.095          -0.991       5.127e-01         -0.0876
 543       1.355e+00       1.892e+00      -4.320e-02          -0.110           0.104          -0.989       3.901e-01         -0.0577
 544       1.105e+00       1.892e+00      -6.537e-03          -0.199           0.146          -0.969       2.484e-01         -0.1550
 545       9.769e-01       1.892e+00       4.951e-02          -0.692           0.373          -0.618       1.322e-01          0.4198
 546       9.769e-01       1.892e+00       1.407e-01          -0.796           0.376           0.474       1.729e-01          0.5163
 547       1.105e+00       1.892e+00       2.537e-01          -0.506           0.217           0.835       2.885e-01         -0.3176
 548       1.355e+00       1.892e+00       3.532e-01          -0.259           0.093           0.961       4.012e-01         -0.7089
 549       1.711e+00       1.891e+00       4.098e-01          -0.075           0.005           0.997       5.095e-01         -0.6796
 550       2.153e+00       1.891e+00       4.235e-01           0.006          -0.032           0.999       6.013e-01         -0.5125
 551       2.654e+00       1.891e+00       4.082e-01           0.053          -0.051           0.997       6.607e-01         -0.3919
 552       3.187e+00       1.891e+00       3.714e-01           0.084          -0.064           0.994       6.825e-01         -0.2943
 553       3.720e+00       1.892e+00       3.203e-01           0.106          -0.072           0.992       6.645e-01         -0.2080
 554       4.222e+00       1.892e+00       2.626e-01           0.122          -0.078           0.989       6.074e-01         -0.1282
 555       4.664e+00       1.892e+00       2.053e-01           0.135          -0.082           0.987       5.146e-01         -0.0499
 556       5.020e+00       1.892e+00       1.548e-01           0.146          -0.085           0.986       3.912e-01          0.0320
 557       5.269e+00       1.892e+00       1.171e-01           0.154          -0.088           0.984       2.446e-01          0.1093
 558       5.398e+00       1.892e+00       9.400e-02           0.239          -0.111           0.965       8.483e-02          0.1881
Strip 22
 559       5.749e+00       3.139e+00       1.363e-01           0.200          -0.011          -0.980       7.738e-02          0.1717
 560       5.629e+00       3.139e+00       1.200e-01           0.112           0.014          -0.994       2.245e-01          0.1205
 561       5.394e+00       3.139e+00       9.487e-02           0.103           0.017          -0.995       3.593e-01          0.0657
 562       5.060e+00       3.139e+00       6.228e-02           0.092           0.020          -0.996       4.729e-01          0.0092
 563       4.645e+00       3.139e+00       2.681e-02           0.079           0.024          -0.997       5.589e-01         -0.0388
 564       4.174e+00       3.140e+00      -6.584e-03           0.063           0.030          -0.998       6.123e-01         -0.0809
 565       3.673e+00       3.140e+00      -3.244e-02           0.041           0.039          -0.998       6.300e-01         -0.1182
 566       3.173e+00       3.140e+00      -4.487e-02           0.009           0.052          -0.999       6.116e-01         -0.1453
 567       2.701e+00       3.140e+00      -3.843e-02          -0.038           0.071          -0.997       5.588e-01         -0.1428
 568       2.287e+00       3.140e+00      -1.229e-02          -0.092           0.095          -0.991       4.749e-01         -0.0843
[...]
 852       7.580e+00       1.374e+01       5.399e-01           0.009           0.052          -0.999       1.233e-01         -0.1325
 853       7.369e+00       1.374e+01       5.428e-01          -0.038           0.071          -0.997       1.126e-01         -0.1242
 854       7.182e+00       1.374e+01       5.545e-01          -0.092           0.095          -0.991       9.563e-02         -0.0576
 855       7.032e+00       1.374e+01       5.696e-01          -0.110           0.104          -0.989       7.275e-02         -0.0074
 856       6.927e+00       1.374e+01       5.851e-01          -0.199           0.146          -0.969       4.625e-02         -0.0391
 857       6.872e+00       1.374e+01       6.087e-01          -0.696           0.375          -0.612       2.452e-02          0.5427
 858       6.872e+00       1.374e+01       6.471e-01          -0.792           0.373           0.484       3.247e-02          0.3721
 859       6.927e+00       1.374e+01       6.947e-01          -0.503           0.216           0.837       5.423e-02         -0.4839
 860       7.032e+00       1.374e+01       7.366e-01          -0.258           0.093           0.962       7.520e-02         -0.8333
 861       7.182e+00       1.374e+01       7.605e-01          -0.075           0.005           0.997       9.526e-02         -0.7592
 862       7.369e+00       1.374e+01       7.663e-01           0.006          -0.032           0.999       1.123e-01         -0.5560
 863       7.580e+00       1.374e+01       7.598e-01           0.053          -0.051           0.997       1.233e-01         -0.4121
 864       7.805e+00       1.374e+01       7.443e-01           0.084          -0.064           0.994       1.273e-01         -0.2993
 865       8.030e+00       1.374e+01       7.228e-01           0.106          -0.072           0.992       1.240e-01         -0.2038
 866       8.242e+00       1.374e+01       6.985e-01           0.122          -0.078           0.989       1.133e-01         -0.1195
 867       8.428e+00       1.374e+01       6.743e-01           0.135          -0.082           0.987       9.597e-02         -0.0398
 868       8.578e+00       1.374e+01       6.531e-01           0.146          -0.085           0.986       7.297e-02          0.0420
 869       8.684e+00       1.374e+01       6.372e-01           0.154          -0.088           0.984       4.562e-02          0.1184
 870       8.738e+00       1.374e+01       6.274e-01           0.240          -0.111           0.964       1.581e-02          0.1972
Strip 34
 871       8.881e+00       1.425e+01       6.444e-01           0.199          -0.011          -0.980       1.218e-02          0.1750
 872       8.830e+00       1.425e+01       6.375e-01           0.111           0.014          -0.994       3.530e-02          0.1239
 873       8.731e+00       1.425e+01       6.269e-01           0.103           0.017          -0.995       5.649e-02          0.0685
 874       8.590e+00       1.425e+01       6.132e-01           0.092           0.020          -0.996       7.436e-02          0.0119
 875       8.414e+00       1.425e+01       5.982e-01           0.079           0.024          -0.997       8.787e-02         -0.0358
 876       8.215e+00       1.425e+01       5.841e-01           0.063           0.030          -0.998       9.625e-02         -0.0775
 877       8.003e+00       1.425e+01       5.732e-01           0.041           0.039          -0.998       9.902e-02         -0.1137
 878       7.791e+00       1.425e+01       5.679e-01           0.009           0.052          -0.999       9.608e-02         -0.1386
 879       7.592e+00       1.425e+01       5.707e-01          -0.038           0.071          -0.997       8.772e-02         -0.1319
 880       7.417e+00       1.425e+01       5.817e-01          -0.092           0.095          -0.991       7.450e-02         -0.0663
 881       7.275e+00       1.425e+01       5.959e-01          -0.110           0.104          -0.989       5.667e-02         -0.0177
 882       7.176e+00       1.425e+01       6.104e-01          -0.199           0.146          -0.969       3.602e-02         -0.0560
 883       7.125e+00       1.425e+01       6.326e-01          -0.697           0.376          -0.611       1.909e-02          0.5290
 884       7.125e+00       1.425e+01       6.688e-01          -0.791           0.373           0.485       2.531e-02          0.3852
 885       7.176e+00       1.425e+01       7.136e-01          -0.502           0.216           0.837       4.228e-02         -0.4655
 886       7.275e+00       1.425e+01       7.531e-01          -0.258           0.093           0.962       5.861e-02         -0.8153
 887       7.417e+00       1.425e+01       7.755e-01          -0.075           0.005           0.997       7.422e-02         -0.7431
 888       7.592e+00       1.424e+01       7.810e-01           0.006          -0.032           0.999       8.748e-02         -0.5412
 889       7.791e+00       1.425e+01       7.749e-01           0.053          -0.051           0.997       9.607e-02         -0.3975
 890       8.003e+00       1.425e+01       7.603e-01           0.084          -0.064           0.994       9.920e-02         -0.2852
 891       8.215e+00       1.425e+01       7.400e-01           0.106          -0.072           0.992       9.656e-02         -0.1909
 892       8.414e+00       1.425e+01       7.171e-01           0.122          -0.078           0.989       8.826e-02         -0.1087
 893       8.590e+00       1.425e+01       6.944e-01           0.135          -0.082           0.987       7.476e-02         -0.0315
 894       8.731e+00       1.425e+01       6.744e-01           0.146          -0.085           0.986       5.684e-02          0.0478
 895       8.830e+00       1.425e+01       6.594e-01           0.154          -0.088           0.984       3.554e-02          0.1222
 896       8.881e+00       1.425e+01       6.503e-01           0.240          -0.111           0.964       1.231e-02          0.2001
Strip 35
 897       8.997e+00       1.466e+01       6.632e-01           0.199          -0.011          -0.980       9.079e-03          0.1742
 898       8.948e+00       1.466e+01       6.567e-01           0.111           0.014          -0.994       2.631e-02          0.1229
 899       8.854e+00       1.466e+01       6.466e-01           0.103           0.017          -0.995       4.211e-02          0.0669
 900       8.720e+00       1.466e+01       6.335e-01           0.092           0.020          -0.996       5.543e-02          0.0105
 901       8.553e+00       1.466e+01       6.193e-01           0.079           0.024          -0.997       6.550e-02         -0.0369
 902       8.364e+00       1.466e+01       6.059e-01           0.063           0.030          -0.998       7.174e-02         -0.0789
 903       8.163e+00       1.466e+01       5.956e-01           0.041           0.039          -0.998       7.381e-02         -0.1170
 904       7.962e+00       1.466e+01       5.906e-01           0.009           0.052          -0.999       7.162e-02         -0.1453
 905       7.773e+00       1.466e+01       5.932e-01          -0.038           0.071          -0.997       6.538e-02         -0.1428
 906       7.606e+00       1.466e+01       6.036e-01          -0.092           0.095          -0.991       5.552e-02         -0.0807
 907       7.472e+00       1.466e+01       6.171e-01          -0.110           0.104          -0.989       4.223e-02         -0.0356
 908       7.378e+00       1.466e+01       6.309e-01          -0.199           0.146          -0.969       2.684e-02         -0.0854
 909       7.329e+00       1.466e+01       6.520e-01          -0.697           0.376          -0.610       1.422e-02          0.5041
 910       7.329e+00       1.466e+01       6.864e-01          -0.791           0.373           0.486       1.888e-02          0.4045
 911       7.378e+00       1.466e+01       7.289e-01          -0.502           0.215           0.838       3.153e-02         -0.4373
 912       7.472e+00       1.466e+01       7.664e-01          -0.258           0.092           0.962       4.371e-02         -0.7857
 913       7.606e+00       1.466e+01       7.877e-01          -0.075           0.005           0.997       5.533e-02         -0.7145
 914       7.773e+00       1.466e+01       7.928e-01           0.006          -0.032           0.999       6.520e-02         -0.5133
 915       7.962e+00       1.466e+01       7.871e-01           0.053          -0.051           0.997       7.160e-02         -0.3695
 916       8.163e+00       1.466e+01       7.732e-01           0.084          -0.064           0.994       7.393e-02         -0.2591
 917       8.364e+00       1.466e+01       7.540e-01           0.106          -0.072           0.992       7.196e-02         -0.1690
 918       8.553e+00       1.466e+01       7.322e-01           0.123          -0.078           0.989       6.578e-02         -0.0922
 919       8.720e+00       1.466e+01       7.107e-01           0.135          -0.082           0.987       5.572e-02         -0.0205
 920       8.854e+00       1.466e+01       6.917e-01           0.146          -0.085           0.986       4.236e-02          0.0543
 921       8.948e+00       1.466e+01       6.775e-01           0.154          -0.088           0.984       2.648e-02          0.1251
 922       8.997e+00       1.466e+01       6.688e-01           0.240          -0.111           0.964       9.177e-03          0.2017
Strip 36
 923       9.084e+00       1.497e+01       6.774e-01           0.199          -0.011          -0.980       6.268e-03          0.1666
 924       9.038e+00       1.497e+01       6.711e-01           0.111           0.014          -0.994       1.817e-02          0.1153
 925       8.947e+00       1.497e+01       6.615e-01           0.103           0.017          -0.995       2.907e-02          0.0600
 926       8.819e+00       1.497e+01       6.489e-01           0.092           0.020          -0.996       3.827e-02          0.0063
 927       8.659e+00       1.497e+01       6.353e-01           0.079           0.024          -0.997       4.522e-02         -0.0374
 928       8.477e+00       1.497e+01       6.224e-01           0.063           0.030          -0.998       4.953e-02         -0.0764
 929       8.284e+00       1.497e+01       6.125e-01           0.041           0.039          -0.998       5.096e-02         -0.1138
 930       8.091e+00       1.497e+01       6.077e-01           0.009           0.052          -0.999       4.944e-02         -0.1457
 931       7.909e+00       1.497e+01       6.102e-01          -0.038           0.071          -0.997       4.513e-02         -0.1523
 932       7.749e+00       1.497e+01       6.202e-01          -0.092           0.095          -0.991       3.832e-02         -0.1016
 933       7.621e+00       1.497e+01       6.331e-01          -0.110           0.104          -0.989       2.915e-02         -0.0658
 934       7.530e+00       1.497e+01       6.464e-01          -0.199           0.146          -0.969       1.853e-02         -0.1341
 935       7.484e+00       1.497e+01       6.667e-01          -0.698           0.376          -0.610       9.811e-03          0.4607
 936       7.484e+00       1.497e+01       6.996e-01          -0.790           0.372           0.487       1.304e-02          0.4223
 937       7.530e+00       1.497e+01       7.404e-01          -0.502           0.215           0.838       2.178e-02         -0.4026
 938       7.621e+00       1.497e+01       7.764e-01          -0.258           0.092           0.962       3.018e-02         -0.7400
 939       7.749e+00       1.497e+01       7.969e-01          -0.075           0.005           0.997       3.820e-02         -0.6628
 940       7.909e+00       1.497e+01       8.018e-01           0.006          -0.032           0.999       4.501e-02         -0.4599
 941       8.091e+00       1.497e+01       7.963e-01           0.053          -0.051           0.997       4.943e-02         -0.3196
 942       8.284e+00       1.497e+01       7.830e-01           0.084          -0.064           0.994       5.103e-02         -0.2186
 943       8.477e+00       1.497e+01       7.645e-01           0.106          -0.072           0.992       4.968e-02         -0.1405
 944       8.659e+00       1.497e+01       7.436e-01           0.123          -0.078           0.989       4.540e-02         -0.0754
 945       8.819e+00       1.497e+01       7.229e-01           0.135          -0.082           0.987       3.846e-02         -0.0137
 946       8.947e+00       1.497e+01       7.047e-01           0.146          -0.085           0.986       2.924e-02          0.0533
 947       9.038e+00       1.497e+01       6.911e-01           0.154          -0.088           0.984       1.828e-02          0.1192
 948       9.084e+00       1.497e+01       6.827e-01           0.240          -0.111           0.964       6.334e-03          0.1943
Strip 37
 949       9.143e+00       1.518e+01       6.869e-01           0.199          -0.011          -0.980       3.673e-03          0.1331
 950       9.098e+00       1.518e+01       6.808e-01           0.111           0.014          -0.994       1.064e-02          0.0854
 951       9.010e+00       1.518e+01       6.714e-01           0.103           0.017          -0.995       1.703e-02          0.0368
 952       8.885e+00       1.518e+01       6.592e-01           0.092           0.020          -0.996       2.242e-02         -0.0069
 953       8.729e+00       1.518e+01       6.460e-01           0.079           0.024          -0.997       2.649e-02         -0.0413
 954       8.553e+00       1.518e+01       6.335e-01           0.063           0.030          -0.998       2.902e-02         -0.0726
 955       8.365e+00       1.518e+01       6.238e-01           0.041           0.039          -0.998       2.985e-02         -0.1037
 956       8.178e+00       1.518e+01       6.192e-01           0.009           0.052          -0.999       2.896e-02         -0.1332
 957       8.001e+00       1.518e+01       6.216e-01          -0.038           0.071          -0.997       2.644e-02         -0.1466
 958       7.846e+00       1.518e+01       6.314e-01          -0.092           0.095          -0.991       2.245e-02         -0.1164
 959       7.720e+00       1.518e+01       6.439e-01          -0.110           0.104          -0.989       1.708e-02         -0.1077
 960       7.633e+00       1.518e+01       6.568e-01          -0.200           0.146          -0.969       1.085e-02         -0.2134
 961       7.587e+00       1.518e+01       6.765e-01          -0.698           0.376          -0.609       5.746e-03          0.3750
 962       7.587e+00       1.518e+01       7.085e-01          -0.790           0.372           0.487       7.640e-03          0.3929
 963       7.633e+00       1.518e+01       7.482e-01          -0.501           0.215           0.838       1.276e-02         -0.3807
 964       7.720e+00       1.517e+01       7.831e-01          -0.258           0.092           0.962       1.768e-02         -0.6593
 965       7.846e+00       1.517e+01       8.030e-01          -0.075           0.005           0.997       2.238e-02         -0.5589
 966       8.001e+00       1.517e+01       8.078e-01           0.006          -0.032           0.999       2.637e-02         -0.3685
 967       8.178e+00       1.517e+01       8.024e-01           0.053          -0.051           0.997       2.896e-02         -0.2531
 968       8.365e+00       1.517e+01       7.895e-01           0.084          -0.064           0.994       2.990e-02         -0.1769
 969       8.553e+00       1.518e+01       7.716e-01           0.106          -0.072           0.992       2.910e-02         -0.1204
 970       8.729e+00       1.518e+01       7.513e-01           0.123          -0.078           0.989       2.660e-02         -0.0750
 971       8.885e+00       1.518e+01       7.312e-01           0.135          -0.082           0.987       2.253e-02         -0.0321
 972       9.010e+00       1.518e+01       7.135e-01           0.146          -0.085           0.986       1.713e-02          0.0183
 973       9.098e+00       1.518e+01       7.002e-01           0.154          -0.088           0.984       1.071e-02          0.0732
 974       9.143e+00       1.518e+01       6.921e-01           0.240          -0.111           0.964       3.711e-03          0.1471
Strip 38
 975       9.172e+00       1.528e+01       6.917e-01           0.199          -0.011          -0.980       1.209e-03          0.0590
 976       9.128e+00       1.528e+01       6.857e-01           0.111           0.014          -0.994       3.504e-03          0.0205
 977       9.041e+00       1.528e+01       6.764e-01           0.103           0.017          -0.995       5.609e-03         -0.0115
 978       8.918e+00       1.528e+01       6.644e-01           0.092           0.020          -0.996       7.383e-03         -0.0368
 979       8.765e+00       1.529e+01       6.513e-01           0.079           0.024          -0.997       8.724e-03         -0.0568
 980       8.591e+00       1.529e+01       6.390e-01           0.063           0.030          -0.998       9.555e-03         -0.0756
 981       8.406e+00       1.529e+01       6.295e-01           0.041           0.039          -0.998       9.830e-03         -0.0951
 982       8.221e+00       1.529e+01       6.249e-01           0.009           0.052          -0.999       9.537e-03         -0.1144
 983       8.047e+00       1.529e+01       6.273e-01          -0.038           0.071          -0.997       8.706e-03         -0.1238
 984       7.894e+00       1.529e+01       6.369e-01          -0.092           0.095          -0.991       7.392e-03         -0.1039
 985       7.770e+00       1.529e+01       6.493e-01          -0.110           0.104          -0.989       5.622e-03         -0.1077
 986       7.684e+00       1.528e+01       6.620e-01          -0.200           0.146          -0.969       3.573e-03         -0.2308
 987       7.639e+00       1.528e+01       6.814e-01          -0.698           0.376          -0.609       1.891e-03          0.3295
 988       7.639e+00       1.528e+01       7.130e-01          -0.790           0.372           0.487       2.516e-03          0.3374
 989       7.684e+00       1.528e+01       7.521e-01          -0.501           0.215           0.838       4.204e-03         -0.3396
 990       7.770e+00       1.528e+01       7.865e-01          -0.258           0.092           0.962       5.824e-03         -0.5099
 991       7.894e+00       1.528e+01       8.061e-01          -0.075           0.005           0.997       7.369e-03         -0.4161
 992       8.047e+00       1.528e+01       8.109e-01           0.006          -0.032           0.999       8.683e-03         -0.2768
 993       8.221e+00       1.528e+01       8.055e-01           0.053          -0.051           0.997       9.534e-03         -0.1971
 994       8.406e+00       1.528e+01       7.928e-01           0.084          -0.064           0.994       9.843e-03         -0.1432
 995       8.591e+00       1.528e+01       7.751e-01           0.106          -0.072           0.992       9.581e-03         -0.1019
 996       8.765e+00       1.528e+01       7.551e-01           0.123          -0.078           0.989       8.757e-03         -0.0684
 997       8.918e+00       1.528e+01       7.353e-01           0.135          -0.082           0.987       7.418e-03         -0.0389
 998       9.041e+00       1.528e+01       7.179e-01           0.146          -0.085           0.986       5.640e-03         -0.0086
 999       9.128e+00       1.528e+01       7.048e-01           0.154          -0.088           0.984       3.526e-03          0.0168
1000       9.172e+00       1.528e+01       6.968e-01           0.240          -0.111           0.964       1.222e-03          0.0748










